Geom Title=Site
Program Version=6.41
Viewing Rectangle= 2406156.79510122 , 2458725.32146973 , 10523783.3207891 , 10514459.3487986 

Storage Area=Perimeter 1     ,,
Storage Area Surface Line= 14 
2406636.4294325310515664.7257383                
2406314.3245300810515624.4626255                
2406251.9167052310516077.4226446                
2406886.0607319410516182.1067379                
2407395.3891089510515920.3965046                
2407558.4547158110515519.7785322                
2407671.19143167 10515123.186871                
2407773.8623693310514557.4901361                
2407173.9419885110514593.7269376                
2407159.8498990210514988.3054431                
2406910.2185996210515082.9237582                
2406823.6529070910515376.8444817                
2406958.53433499 10515711.028318                
2406636.4294325310515664.7257383                
Storage Area Type= 1 
Storage Area Area=
Storage Area Min Elev=
Storage Area Is2D=-1
Storage Area Point Generation Data=,,5,5
Storage Area 2D Points= 47630 
2406879.4167052310516179.60673792406884.4167052310516179.6067379
2406849.4167052310516174.60673792406854.4167052310516174.6067379
2406859.4167052310516174.60673792406864.4167052310516174.6067379
2406869.4167052310516174.60673792406874.4167052310516174.6067379
2406879.4167052310516174.60673792406884.4167052310516174.6067379
2406889.4167052310516174.60673792406894.4167052310516174.6067379
2406819.4167052310516169.60673792406824.4167052310516169.6067379
2406829.4167052310516169.60673792406834.4167052310516169.6067379
2406839.4167052310516169.60673792406844.4167052310516169.6067379
2406849.4167052310516169.60673792406854.4167052310516169.6067379
2406859.4167052310516169.60673792406864.4167052310516169.6067379
2406869.4167052310516169.60673792406874.4167052310516169.6067379
2406879.4167052310516169.60673792406884.4167052310516169.6067379
2406889.4167052310516169.60673792406894.4167052310516169.6067379
2406899.4167052310516169.60673792406904.4167052310516169.6067379
2406789.4167052310516164.60673792406794.4167052310516164.6067379
2406799.4167052310516164.60673792406804.4167052310516164.6067379
2406809.4167052310516164.60673792406814.4167052310516164.6067379
2406819.4167052310516164.60673792406824.4167052310516164.6067379
2406829.4167052310516164.60673792406834.4167052310516164.6067379
2406839.4167052310516164.60673792406844.4167052310516164.6067379
2406849.4167052310516164.60673792406854.4167052310516164.6067379
2406859.4167052310516164.60673792406864.4167052310516164.6067379
2406869.4167052310516164.60673792406874.4167052310516164.6067379
2406879.4167052310516164.60673792406884.4167052310516164.6067379
2406889.4167052310516164.60673792406894.4167052310516164.6067379
2406899.4167052310516164.60673792406904.4167052310516164.6067379
2406909.4167052310516164.60673792406914.4167052310516164.6067379
2406759.4167052310516159.60673792406764.4167052310516159.6067379
2406769.4167052310516159.60673792406774.4167052310516159.6067379
2406779.4167052310516159.60673792406784.4167052310516159.6067379
2406789.4167052310516159.60673792406794.4167052310516159.6067379
2406799.4167052310516159.60673792406804.4167052310516159.6067379
2406809.4167052310516159.60673792406814.4167052310516159.6067379
2406819.4167052310516159.60673792406824.4167052310516159.6067379
2406829.4167052310516159.60673792406834.4167052310516159.6067379
2406839.4167052310516159.60673792406844.4167052310516159.6067379
2406849.4167052310516159.60673792406854.4167052310516159.6067379
2406859.4167052310516159.60673792406864.4167052310516159.6067379
2406869.4167052310516159.60673792406874.4167052310516159.6067379
2406879.4167052310516159.60673792406884.4167052310516159.6067379
2406889.4167052310516159.60673792406894.4167052310516159.6067379
2406899.4167052310516159.60673792406904.4167052310516159.6067379
2406909.4167052310516159.60673792406914.4167052310516159.6067379
2406919.4167052310516159.60673792406924.4167052310516159.6067379
2406729.4167052310516154.60673792406734.4167052310516154.6067379
2406739.4167052310516154.60673792406744.4167052310516154.6067379
2406749.4167052310516154.60673792406754.4167052310516154.6067379
2406759.4167052310516154.60673792406764.4167052310516154.6067379
2406769.4167052310516154.60673792406774.4167052310516154.6067379
2406779.4167052310516154.60673792406784.4167052310516154.6067379
2406789.4167052310516154.60673792406794.4167052310516154.6067379
2406799.4167052310516154.60673792406804.4167052310516154.6067379
2406809.4167052310516154.60673792406814.4167052310516154.6067379
2406819.4167052310516154.60673792406824.4167052310516154.6067379
2406829.4167052310516154.60673792406834.4167052310516154.6067379
2406839.4167052310516154.60673792406844.4167052310516154.6067379
2406849.4167052310516154.60673792406854.4167052310516154.6067379
2406859.4167052310516154.60673792406864.4167052310516154.6067379
2406869.4167052310516154.60673792406874.4167052310516154.6067379
2406879.4167052310516154.60673792406884.4167052310516154.6067379
2406889.4167052310516154.60673792406894.4167052310516154.6067379
2406899.4167052310516154.60673792406904.4167052310516154.6067379
2406909.4167052310516154.60673792406914.4167052310516154.6067379
2406919.4167052310516154.60673792406924.4167052310516154.6067379
2406929.4167052310516154.60673792406934.4167052310516154.6067379
2406699.4167052310516149.60673792406704.4167052310516149.6067379
2406709.4167052310516149.60673792406714.4167052310516149.6067379
2406719.4167052310516149.60673792406724.4167052310516149.6067379
2406729.4167052310516149.60673792406734.4167052310516149.6067379
2406739.4167052310516149.60673792406744.4167052310516149.6067379
2406749.4167052310516149.60673792406754.4167052310516149.6067379
2406759.4167052310516149.60673792406764.4167052310516149.6067379
2406769.4167052310516149.60673792406774.4167052310516149.6067379
2406779.4167052310516149.60673792406784.4167052310516149.6067379
2406789.4167052310516149.60673792406794.4167052310516149.6067379
2406799.4167052310516149.60673792406804.4167052310516149.6067379
2406809.4167052310516149.60673792406814.4167052310516149.6067379
2406819.4167052310516149.60673792406824.4167052310516149.6067379
2406829.4167052310516149.60673792406834.4167052310516149.6067379
2406839.4167052310516149.60673792406844.4167052310516149.6067379
2406849.4167052310516149.60673792406854.4167052310516149.6067379
2406859.4167052310516149.60673792406864.4167052310516149.6067379
2406869.4167052310516149.60673792406874.4167052310516149.6067379
2406879.4167052310516149.60673792406884.4167052310516149.6067379
2406889.4167052310516149.60673792406894.4167052310516149.6067379
2406899.4167052310516149.60673792406904.4167052310516149.6067379
2406909.4167052310516149.60673792406914.4167052310516149.6067379
2406919.4167052310516149.60673792406924.4167052310516149.6067379
2406929.4167052310516149.60673792406934.4167052310516149.6067379
2406939.4167052310516149.60673792406944.4167052310516149.6067379
2406669.4167052310516144.60673792406674.4167052310516144.6067379
2406679.4167052310516144.60673792406684.4167052310516144.6067379
2406689.4167052310516144.60673792406694.4167052310516144.6067379
2406699.4167052310516144.60673792406704.4167052310516144.6067379
2406709.4167052310516144.60673792406714.4167052310516144.6067379
2406719.4167052310516144.60673792406724.4167052310516144.6067379
2406729.4167052310516144.60673792406734.4167052310516144.6067379
2406739.4167052310516144.60673792406744.4167052310516144.6067379
2406749.4167052310516144.60673792406754.4167052310516144.6067379
2406759.4167052310516144.60673792406764.4167052310516144.6067379
2406769.4167052310516144.60673792406774.4167052310516144.6067379
2406779.4167052310516144.60673792406784.4167052310516144.6067379
2406789.4167052310516144.60673792406794.4167052310516144.6067379
2406799.4167052310516144.60673792406804.4167052310516144.6067379
2406809.4167052310516144.60673792406814.4167052310516144.6067379
2406819.4167052310516144.60673792406824.4167052310516144.6067379
2406829.4167052310516144.60673792406834.4167052310516144.6067379
2406839.4167052310516144.60673792406844.4167052310516144.6067379
2406849.4167052310516144.60673792406854.4167052310516144.6067379
2406859.4167052310516144.60673792406864.4167052310516144.6067379
2406869.4167052310516144.60673792406874.4167052310516144.6067379
2406879.4167052310516144.60673792406884.4167052310516144.6067379
2406889.4167052310516144.60673792406894.4167052310516144.6067379
2406899.4167052310516144.60673792406904.4167052310516144.6067379
2406909.4167052310516144.60673792406914.4167052310516144.6067379
2406919.4167052310516144.60673792406924.4167052310516144.6067379
2406929.4167052310516144.60673792406934.4167052310516144.6067379
2406939.4167052310516144.60673792406944.4167052310516144.6067379
2406949.4167052310516144.60673792406954.4167052310516144.6067379
2406639.4167052310516139.60673792406644.4167052310516139.6067379
2406649.4167052310516139.60673792406654.4167052310516139.6067379
2406659.4167052310516139.60673792406664.4167052310516139.6067379
2406669.4167052310516139.60673792406674.4167052310516139.6067379
2406679.4167052310516139.60673792406684.4167052310516139.6067379
2406689.4167052310516139.60673792406694.4167052310516139.6067379
2406699.4167052310516139.60673792406704.4167052310516139.6067379
2406709.4167052310516139.60673792406714.4167052310516139.6067379
2406719.4167052310516139.60673792406724.4167052310516139.6067379
2406729.4167052310516139.60673792406734.4167052310516139.6067379
2406739.4167052310516139.60673792406744.4167052310516139.6067379
2406749.4167052310516139.60673792406754.4167052310516139.6067379
2406759.4167052310516139.60673792406764.4167052310516139.6067379
2406769.4167052310516139.60673792406774.4167052310516139.6067379
2406779.4167052310516139.60673792406784.4167052310516139.6067379
2406789.4167052310516139.60673792406794.4167052310516139.6067379
2406799.4167052310516139.60673792406804.4167052310516139.6067379
2406809.4167052310516139.60673792406814.4167052310516139.6067379
2406819.4167052310516139.60673792406824.4167052310516139.6067379
2406829.4167052310516139.60673792406834.4167052310516139.6067379
2406839.4167052310516139.60673792406844.4167052310516139.6067379
2406849.4167052310516139.60673792406854.4167052310516139.6067379
2406859.4167052310516139.60673792406864.4167052310516139.6067379
2406869.4167052310516139.60673792406874.4167052310516139.6067379
2406879.4167052310516139.60673792406884.4167052310516139.6067379
2406889.4167052310516139.60673792406894.4167052310516139.6067379
2406899.4167052310516139.60673792406904.4167052310516139.6067379
2406909.4167052310516139.60673792406914.4167052310516139.6067379
2406919.4167052310516139.60673792406924.4167052310516139.6067379
2406929.4167052310516139.60673792406934.4167052310516139.6067379
2406939.4167052310516139.60673792406944.4167052310516139.6067379
2406949.4167052310516139.60673792406954.4167052310516139.6067379
2406959.4167052310516139.60673792406964.4167052310516139.6067379
2406609.4167052310516134.60673792406614.4167052310516134.6067379
2406619.4167052310516134.60673792406624.4167052310516134.6067379
2406629.4167052310516134.60673792406634.4167052310516134.6067379
2406639.4167052310516134.60673792406644.4167052310516134.6067379
2406649.4167052310516134.60673792406654.4167052310516134.6067379
2406659.4167052310516134.60673792406664.4167052310516134.6067379
2406669.4167052310516134.60673792406674.4167052310516134.6067379
2406679.4167052310516134.60673792406684.4167052310516134.6067379
2406689.4167052310516134.60673792406694.4167052310516134.6067379
2406699.4167052310516134.60673792406704.4167052310516134.6067379
2406709.4167052310516134.60673792406714.4167052310516134.6067379
2406719.4167052310516134.60673792406724.4167052310516134.6067379
2406729.4167052310516134.60673792406734.4167052310516134.6067379
2406739.4167052310516134.60673792406744.4167052310516134.6067379
2406749.4167052310516134.60673792406754.4167052310516134.6067379
2406759.4167052310516134.60673792406764.4167052310516134.6067379
2406769.4167052310516134.60673792406774.4167052310516134.6067379
2406779.4167052310516134.60673792406784.4167052310516134.6067379
2406789.4167052310516134.60673792406794.4167052310516134.6067379
2406799.4167052310516134.60673792406804.4167052310516134.6067379
2406809.4167052310516134.60673792406814.4167052310516134.6067379
2406819.4167052310516134.60673792406824.4167052310516134.6067379
2406829.4167052310516134.60673792406834.4167052310516134.6067379
2406839.4167052310516134.60673792406844.4167052310516134.6067379
2406849.4167052310516134.60673792406854.4167052310516134.6067379
2406859.4167052310516134.60673792406864.4167052310516134.6067379
2406869.4167052310516134.60673792406874.4167052310516134.6067379
2406879.4167052310516134.60673792406884.4167052310516134.6067379
2406889.4167052310516134.60673792406894.4167052310516134.6067379
2406899.4167052310516134.60673792406904.4167052310516134.6067379
2406909.4167052310516134.60673792406914.4167052310516134.6067379
2406919.4167052310516134.60673792406924.4167052310516134.6067379
2406929.4167052310516134.60673792406934.4167052310516134.6067379
2406939.4167052310516134.60673792406944.4167052310516134.6067379
2406949.4167052310516134.60673792406954.4167052310516134.6067379
2406959.4167052310516134.60673792406964.4167052310516134.6067379
2406969.4167052310516134.60673792406974.4167052310516134.6067379
2406579.4167052310516129.60673792406584.4167052310516129.6067379
2406589.4167052310516129.60673792406594.4167052310516129.6067379
2406599.4167052310516129.60673792406604.4167052310516129.6067379
2406609.4167052310516129.60673792406614.4167052310516129.6067379
2406619.4167052310516129.60673792406624.4167052310516129.6067379
2406629.4167052310516129.60673792406634.4167052310516129.6067379
2406639.4167052310516129.60673792406644.4167052310516129.6067379
2406649.4167052310516129.60673792406654.4167052310516129.6067379
2406659.4167052310516129.60673792406664.4167052310516129.6067379
2406669.4167052310516129.60673792406674.4167052310516129.6067379
2406679.4167052310516129.60673792406684.4167052310516129.6067379
2406689.4167052310516129.60673792406694.4167052310516129.6067379
2406699.4167052310516129.60673792406704.4167052310516129.6067379
2406709.4167052310516129.60673792406714.4167052310516129.6067379
2406719.4167052310516129.60673792406724.4167052310516129.6067379
2406729.4167052310516129.60673792406734.4167052310516129.6067379
2406739.4167052310516129.60673792406744.4167052310516129.6067379
2406749.4167052310516129.60673792406754.4167052310516129.6067379
2406759.4167052310516129.60673792406764.4167052310516129.6067379
2406769.4167052310516129.60673792406774.4167052310516129.6067379
2406779.4167052310516129.60673792406784.4167052310516129.6067379
2406789.4167052310516129.60673792406794.4167052310516129.6067379
2406799.4167052310516129.60673792406804.4167052310516129.6067379
2406809.4167052310516129.60673792406814.4167052310516129.6067379
2406819.4167052310516129.60673792406824.4167052310516129.6067379
2406829.4167052310516129.60673792406834.4167052310516129.6067379
2406839.4167052310516129.60673792406844.4167052310516129.6067379
2406849.4167052310516129.60673792406854.4167052310516129.6067379
2406859.4167052310516129.60673792406864.4167052310516129.6067379
2406869.4167052310516129.60673792406874.4167052310516129.6067379
2406879.4167052310516129.60673792406884.4167052310516129.6067379
2406889.4167052310516129.60673792406894.4167052310516129.6067379
2406899.4167052310516129.60673792406904.4167052310516129.6067379
2406909.4167052310516129.60673792406914.4167052310516129.6067379
2406919.4167052310516129.60673792406924.4167052310516129.6067379
2406929.4167052310516129.60673792406934.4167052310516129.6067379
2406939.4167052310516129.60673792406944.4167052310516129.6067379
2406949.4167052310516129.60673792406954.4167052310516129.6067379
2406959.4167052310516129.60673792406964.4167052310516129.6067379
2406969.4167052310516129.60673792406974.4167052310516129.6067379
2406979.4167052310516129.60673792406984.4167052310516129.6067379
2406549.4167052310516124.60673792406554.4167052310516124.6067379
2406559.4167052310516124.60673792406564.4167052310516124.6067379
2406569.4167052310516124.60673792406574.4167052310516124.6067379
2406579.4167052310516124.60673792406584.4167052310516124.6067379
2406589.4167052310516124.60673792406594.4167052310516124.6067379
2406599.4167052310516124.60673792406604.4167052310516124.6067379
2406609.4167052310516124.60673792406614.4167052310516124.6067379
2406619.4167052310516124.60673792406624.4167052310516124.6067379
2406629.4167052310516124.60673792406634.4167052310516124.6067379
2406639.4167052310516124.60673792406644.4167052310516124.6067379
2406649.4167052310516124.60673792406654.4167052310516124.6067379
2406659.4167052310516124.60673792406664.4167052310516124.6067379
2406669.4167052310516124.60673792406674.4167052310516124.6067379
2406679.4167052310516124.60673792406684.4167052310516124.6067379
2406689.4167052310516124.60673792406694.4167052310516124.6067379
2406699.4167052310516124.60673792406704.4167052310516124.6067379
2406709.4167052310516124.60673792406714.4167052310516124.6067379
2406719.4167052310516124.60673792406724.4167052310516124.6067379
2406729.4167052310516124.60673792406734.4167052310516124.6067379
2406739.4167052310516124.60673792406744.4167052310516124.6067379
2406749.4167052310516124.60673792406754.4167052310516124.6067379
2406759.4167052310516124.60673792406764.4167052310516124.6067379
2406769.4167052310516124.60673792406774.4167052310516124.6067379
2406779.4167052310516124.60673792406784.4167052310516124.6067379
2406789.4167052310516124.60673792406794.4167052310516124.6067379
2406799.4167052310516124.60673792406804.4167052310516124.6067379
2406809.4167052310516124.60673792406814.4167052310516124.6067379
2406819.4167052310516124.60673792406824.4167052310516124.6067379
2406829.4167052310516124.60673792406834.4167052310516124.6067379
2406839.4167052310516124.60673792406844.4167052310516124.6067379
2406849.4167052310516124.60673792406854.4167052310516124.6067379
2406859.4167052310516124.60673792406864.4167052310516124.6067379
2406869.4167052310516124.60673792406874.4167052310516124.6067379
2406879.4167052310516124.60673792406884.4167052310516124.6067379
2406889.4167052310516124.60673792406894.4167052310516124.6067379
2406899.4167052310516124.60673792406904.4167052310516124.6067379
2406909.4167052310516124.60673792406914.4167052310516124.6067379
2406919.4167052310516124.60673792406924.4167052310516124.6067379
2406929.4167052310516124.60673792406934.4167052310516124.6067379
2406939.4167052310516124.60673792406944.4167052310516124.6067379
2406949.4167052310516124.60673792406954.4167052310516124.6067379
2406959.4167052310516124.60673792406964.4167052310516124.6067379
2406969.4167052310516124.60673792406974.4167052310516124.6067379
2406979.4167052310516124.60673792406984.4167052310516124.6067379
2406989.4167052310516124.60673792406994.4167052310516124.6067379
2406519.4167052310516119.60673792406524.4167052310516119.6067379
2406529.4167052310516119.60673792406534.4167052310516119.6067379
2406539.4167052310516119.60673792406544.4167052310516119.6067379
2406549.4167052310516119.60673792406554.4167052310516119.6067379
2406559.4167052310516119.60673792406564.4167052310516119.6067379
2406569.4167052310516119.60673792406574.4167052310516119.6067379
2406579.4167052310516119.60673792406584.4167052310516119.6067379
2406589.4167052310516119.60673792406594.4167052310516119.6067379
2406599.4167052310516119.60673792406604.4167052310516119.6067379
2406609.4167052310516119.60673792406614.4167052310516119.6067379
2406619.4167052310516119.60673792406624.4167052310516119.6067379
2406629.4167052310516119.60673792406634.4167052310516119.6067379
2406639.4167052310516119.60673792406644.4167052310516119.6067379
2406649.4167052310516119.60673792406654.4167052310516119.6067379
2406659.4167052310516119.60673792406664.4167052310516119.6067379
2406669.4167052310516119.60673792406674.4167052310516119.6067379
2406679.4167052310516119.60673792406684.4167052310516119.6067379
2406689.4167052310516119.60673792406694.4167052310516119.6067379
2406699.4167052310516119.60673792406704.4167052310516119.6067379
2406709.4167052310516119.60673792406714.4167052310516119.6067379
2406719.4167052310516119.60673792406724.4167052310516119.6067379
2406729.4167052310516119.60673792406734.4167052310516119.6067379
2406739.4167052310516119.60673792406744.4167052310516119.6067379
2406749.4167052310516119.60673792406754.4167052310516119.6067379
2406759.4167052310516119.60673792406764.4167052310516119.6067379
2406769.4167052310516119.60673792406774.4167052310516119.6067379
2406779.4167052310516119.60673792406784.4167052310516119.6067379
2406789.4167052310516119.60673792406794.4167052310516119.6067379
2406799.4167052310516119.60673792406804.4167052310516119.6067379
2406809.4167052310516119.60673792406814.4167052310516119.6067379
2406819.4167052310516119.60673792406824.4167052310516119.6067379
2406829.4167052310516119.60673792406834.4167052310516119.6067379
2406839.4167052310516119.60673792406844.4167052310516119.6067379
2406849.4167052310516119.60673792406854.4167052310516119.6067379
2406859.4167052310516119.60673792406864.4167052310516119.6067379
2406869.4167052310516119.60673792406874.4167052310516119.6067379
2406879.4167052310516119.60673792406884.4167052310516119.6067379
2406889.4167052310516119.60673792406894.4167052310516119.6067379
2406899.4167052310516119.60673792406904.4167052310516119.6067379
2406909.4167052310516119.60673792406914.4167052310516119.6067379
2406919.4167052310516119.60673792406924.4167052310516119.6067379
2406929.4167052310516119.60673792406934.4167052310516119.6067379
2406939.4167052310516119.60673792406944.4167052310516119.6067379
2406949.4167052310516119.60673792406954.4167052310516119.6067379
2406959.4167052310516119.60673792406964.4167052310516119.6067379
2406969.4167052310516119.60673792406974.4167052310516119.6067379
2406979.4167052310516119.60673792406984.4167052310516119.6067379
2406989.4167052310516119.60673792406994.4167052310516119.6067379
2406999.4167052310516119.60673792407004.4167052310516119.6067379
2406489.4167052310516114.60673792406494.4167052310516114.6067379
2406499.4167052310516114.60673792406504.4167052310516114.6067379
2406509.4167052310516114.60673792406514.4167052310516114.6067379
2406519.4167052310516114.60673792406524.4167052310516114.6067379
2406529.4167052310516114.60673792406534.4167052310516114.6067379
2406539.4167052310516114.60673792406544.4167052310516114.6067379
2406549.4167052310516114.60673792406554.4167052310516114.6067379
2406559.4167052310516114.60673792406564.4167052310516114.6067379
2406569.4167052310516114.60673792406574.4167052310516114.6067379
2406579.4167052310516114.60673792406584.4167052310516114.6067379
2406589.4167052310516114.60673792406594.4167052310516114.6067379
2406599.4167052310516114.60673792406604.4167052310516114.6067379
2406609.4167052310516114.60673792406614.4167052310516114.6067379
2406619.4167052310516114.60673792406624.4167052310516114.6067379
2406629.4167052310516114.60673792406634.4167052310516114.6067379
2406639.4167052310516114.60673792406644.4167052310516114.6067379
2406649.4167052310516114.60673792406654.4167052310516114.6067379
2406659.4167052310516114.60673792406664.4167052310516114.6067379
2406669.4167052310516114.60673792406674.4167052310516114.6067379
2406679.4167052310516114.60673792406684.4167052310516114.6067379
2406689.4167052310516114.60673792406694.4167052310516114.6067379
2406699.4167052310516114.60673792406704.4167052310516114.6067379
2406709.4167052310516114.60673792406714.4167052310516114.6067379
2406719.4167052310516114.60673792406724.4167052310516114.6067379
2406729.4167052310516114.60673792406734.4167052310516114.6067379
2406739.4167052310516114.60673792406744.4167052310516114.6067379
2406749.4167052310516114.60673792406754.4167052310516114.6067379
2406759.4167052310516114.60673792406764.4167052310516114.6067379
2406769.4167052310516114.60673792406774.4167052310516114.6067379
2406779.4167052310516114.60673792406784.4167052310516114.6067379
2406789.4167052310516114.60673792406794.4167052310516114.6067379
2406799.4167052310516114.60673792406804.4167052310516114.6067379
2406809.4167052310516114.60673792406814.4167052310516114.6067379
2406819.4167052310516114.60673792406824.4167052310516114.6067379
2406829.4167052310516114.60673792406834.4167052310516114.6067379
2406839.4167052310516114.60673792406844.4167052310516114.6067379
2406849.4167052310516114.60673792406854.4167052310516114.6067379
2406859.4167052310516114.60673792406864.4167052310516114.6067379
2406869.4167052310516114.60673792406874.4167052310516114.6067379
2406879.4167052310516114.60673792406884.4167052310516114.6067379
2406889.4167052310516114.60673792406894.4167052310516114.6067379
2406899.4167052310516114.60673792406904.4167052310516114.6067379
2406909.4167052310516114.60673792406914.4167052310516114.6067379
2406919.4167052310516114.60673792406924.4167052310516114.6067379
2406929.4167052310516114.60673792406934.4167052310516114.6067379
2406939.4167052310516114.60673792406944.4167052310516114.6067379
2406949.4167052310516114.60673792406954.4167052310516114.6067379
2406959.4167052310516114.60673792406964.4167052310516114.6067379
2406969.4167052310516114.60673792406974.4167052310516114.6067379
2406979.4167052310516114.60673792406984.4167052310516114.6067379
2406989.4167052310516114.60673792406994.4167052310516114.6067379
2406999.4167052310516114.60673792407004.4167052310516114.6067379
2407009.4167052310516114.60673792407014.4167052310516114.6067379
2406459.4167052310516109.60673792406464.4167052310516109.6067379
2406469.4167052310516109.60673792406474.4167052310516109.6067379
2406479.4167052310516109.60673792406484.4167052310516109.6067379
2406489.4167052310516109.60673792406494.4167052310516109.6067379
2406499.4167052310516109.60673792406504.4167052310516109.6067379
2406509.4167052310516109.60673792406514.4167052310516109.6067379
2406519.4167052310516109.60673792406524.4167052310516109.6067379
2406529.4167052310516109.60673792406534.4167052310516109.6067379
2406539.4167052310516109.60673792406544.4167052310516109.6067379
2406549.4167052310516109.60673792406554.4167052310516109.6067379
2406559.4167052310516109.60673792406564.4167052310516109.6067379
2406569.4167052310516109.60673792406574.4167052310516109.6067379
2406579.4167052310516109.60673792406584.4167052310516109.6067379
2406589.4167052310516109.60673792406594.4167052310516109.6067379
2406599.4167052310516109.60673792406604.4167052310516109.6067379
2406609.4167052310516109.60673792406614.4167052310516109.6067379
2406619.4167052310516109.60673792406624.4167052310516109.6067379
2406629.4167052310516109.60673792406634.4167052310516109.6067379
2406639.4167052310516109.60673792406644.4167052310516109.6067379
2406649.4167052310516109.60673792406654.4167052310516109.6067379
2406659.4167052310516109.60673792406664.4167052310516109.6067379
2406669.4167052310516109.60673792406674.4167052310516109.6067379
2406679.4167052310516109.60673792406684.4167052310516109.6067379
2406689.4167052310516109.60673792406694.4167052310516109.6067379
2406699.4167052310516109.60673792406704.4167052310516109.6067379
2406709.4167052310516109.60673792406714.4167052310516109.6067379
2406719.4167052310516109.60673792406724.4167052310516109.6067379
2406729.4167052310516109.60673792406734.4167052310516109.6067379
2406739.4167052310516109.60673792406744.4167052310516109.6067379
2406749.4167052310516109.60673792406754.4167052310516109.6067379
2406759.4167052310516109.60673792406764.4167052310516109.6067379
2406769.4167052310516109.60673792406774.4167052310516109.6067379
2406779.4167052310516109.60673792406784.4167052310516109.6067379
2406789.4167052310516109.60673792406794.4167052310516109.6067379
2406799.4167052310516109.60673792406804.4167052310516109.6067379
2406809.4167052310516109.60673792406814.4167052310516109.6067379
2406819.4167052310516109.60673792406824.4167052310516109.6067379
2406829.4167052310516109.60673792406834.4167052310516109.6067379
2406839.4167052310516109.60673792406844.4167052310516109.6067379
2406849.4167052310516109.60673792406854.4167052310516109.6067379
2406859.4167052310516109.60673792406864.4167052310516109.6067379
2406869.4167052310516109.60673792406874.4167052310516109.6067379
2406879.4167052310516109.60673792406884.4167052310516109.6067379
2406889.4167052310516109.60673792406894.4167052310516109.6067379
2406899.4167052310516109.60673792406904.4167052310516109.6067379
2406909.4167052310516109.60673792406914.4167052310516109.6067379
2406919.4167052310516109.60673792406924.4167052310516109.6067379
2406929.4167052310516109.60673792406934.4167052310516109.6067379
2406939.4167052310516109.60673792406944.4167052310516109.6067379
2406949.4167052310516109.60673792406954.4167052310516109.6067379
2406959.4167052310516109.60673792406964.4167052310516109.6067379
2406969.4167052310516109.60673792406974.4167052310516109.6067379
2406979.4167052310516109.60673792406984.4167052310516109.6067379
2406989.4167052310516109.60673792406994.4167052310516109.6067379
2406999.4167052310516109.60673792407004.4167052310516109.6067379
2407009.4167052310516109.60673792407014.4167052310516109.6067379
2407019.4167052310516109.60673792407024.4167052310516109.6067379
2406424.4167052310516104.60673792406429.4167052310516104.6067379
2406434.4167052310516104.60673792406439.4167052310516104.6067379
2406444.4167052310516104.60673792406449.4167052310516104.6067379
2406454.4167052310516104.60673792406459.4167052310516104.6067379
2406464.4167052310516104.60673792406469.4167052310516104.6067379
2406474.4167052310516104.60673792406479.4167052310516104.6067379
2406484.4167052310516104.60673792406489.4167052310516104.6067379
2406494.4167052310516104.60673792406499.4167052310516104.6067379
2406504.4167052310516104.60673792406509.4167052310516104.6067379
2406514.4167052310516104.60673792406519.4167052310516104.6067379