# File generated by Flopy version 3.9.2 on 02/19/2025 at 11:48:05.
BEGIN options
END options

BEGIN dimensions
  NPER  1
END dimensions

BEGIN perioddata
       1.00000000  1       1.00000000
END perioddata

