# File generated by Flopy version 3.9.2 on 02/20/2025 at 15:41:35.
BEGIN options
END options

BEGIN packages
  DIS6  gfw.dis  dis
  IC6  gfw.ic  ic
  NPF6  gfw.npf  npf
  CHD6  gfw.chd  chd
  OC6  gfw.oc  oc
END packages

