# File generated by Flopy version 3.9.2 on 02/19/2025 at 18:20:47.
BEGIN options
END options

BEGIN griddata
  strt
    CONSTANT      10.00000000
END griddata

