# File generated by Flopy version 3.9.2 on 02/19/2025 at 11:48:06.
BEGIN options
  BUDGET  FILEOUT  gfw.cbc
  HEAD  FILEOUT  gfw.hds
END options

BEGIN period  1
  SAVE  HEAD  ALL
  SAVE  BUDGET  ALL
  PRINT  HEAD  LAST
  PRINT  BUDGET  LAST
END period  1

