# File generated by Flopy version 3.9.2 on 02/19/2025 at 11:48:06.
BEGIN options
END options

BEGIN griddata
  icelltype
    CONSTANT  0
  k
    CONSTANT      10.00000000
  k33
    CONSTANT       1.00000000
END griddata

