# File generated by Flopy version 3.9.2 on 02/20/2025 at 15:41:37.
BEGIN options
END options

BEGIN dimensions
  MAXBOUND  3160
END dimensions

BEGIN period  1
  32 40 67 1.60527000E+03
  21 56 61 1.60526000E+03
  15 44 65 1.60526000E+03
  29 58 60 1.60525000E+03
  27 50 63 1.60525000E+03
  19 61 59 1.60525000E+03
  33 62 59 1.60524000E+03
  5 42 66 1.60524000E+03
  17 48 64 1.60524000E+03
  19 57 61 1.60523000E+03
  14 53 62 1.60523000E+03
  4 56 61 1.60522000E+03
  12 58 60 1.60522000E+03
  2 48 64 1.60522000E+03
  16 62 59 1.60521000E+03
  39 44 65 1.60521000E+03
  29 47 64 1.60520000E+03
  29 43 66 1.60520000E+03
  28 61 59 1.60520000E+03
  14 42 66 1.60519000E+03
  22 44 65 1.60519000E+03
  18 59 60 1.60519000E+03
  12 47 64 1.60518000E+03
  26 61 59 1.60518000E+03
  16 51 63 1.60517000E+03
  24 53 62 1.60517000E+03
  28 57 61 1.60517000E+03
  36 59 60 1.60516000E+03
  7 44 65 1.60516000E+03
  12 43 66 1.60515000E+03
  11 61 59 1.60515000E+03
  1 59 60 1.60515000E+03
  9 48 64 1.60514000E+03
  7 40 67 1.60514000E+03
  11 57 61 1.60514000E+03
  26 50 63 1.60513000E+03
  34 39 67 1.60513000E+03
  24 42 66 1.60512000E+03
  2 50 63 1.60512000E+03
  38 56 61 1.60512000E+03
  36 48 64 1.60511000E+03
  21 47 64 1.60511000E+03
  26 46 65 1.60511000E+03
  35 61 59 1.60510000E+03
  24 38 68 1.60510000E+03
  33 53 62 1.60509000E+03
  17 39 67 1.60509000E+03
  13 54 62 1.60509000E+03
  21 43 66 1.60508000E+03
  35 57 61 1.60508000E+03
  29 45 65 1.60507000E+03
  19 48 64 1.60507000E+03
  25 60 60 1.60507000E+03
  14 44 65 1.60506000E+03
  4 47 64 1.60506000E+03
  18 61 59 1.60506000E+03
  2 39 67 1.60505000E+03
  16 53 62 1.60505000E+03
  6 56 61 1.60504000E+03
  4 43 66 1.60504000E+03
  18 57 61 1.60504000E+03
  8 60 60 1.60503000E+03
  6 52 63 1.60503000E+03
  35 46 65 1.60502000E+03
  16 42 66 1.60502000E+03
  30 56 61 1.60502000E+03
  20 59 60 1.60501000E+03
  28 48 64 1.60501000E+03
  40 54 62 1.60501000E+03
  10 57 61 1.60500000E+03
  18 46 65 1.60500000E+03
  26 48 64 1.60499000E+03
  16 38 68 1.60499000E+03
  22 63 59 1.60499000E+03
  30 52 63 1.60498000E+03
  28 49 64 1.60498000E+03
  1 50 63 1.60497000E+03
  9 39 67 1.60497000E+03
  13 56 61 1.60497000E+03
  21 45 65 1.60496000E+03
  3 59 60 1.60496000E+03
  11 48 64 1.60496000E+03
  25 62 59 1.60495000E+03
  23 54 62 1.60495000E+03
  1 46 65 1.60494000E+03
  5 63 59 1.60494000E+03
  38 47 64 1.60494000E+03
  36 39 67 1.60493000E+03
  8 62 59 1.60493000E+03
  38 43 66 1.60492000E+03
  36 40 67 1.60492000E+03
  13 45 65 1.60492000E+03
  35 48 64 1.60491000E+03
  25 51 63 1.60491000E+03
  19 39 67 1.60491000E+03
  33 40 67 1.60490000E+03
  23 43 66 1.60490000E+03
  37 57 61 1.60489000E+03
  13 41 67 1.60489000E+03
  6 47 64 1.60489000E+03
  10 59 60 1.60488000E+03
  18 48 64 1.60488000E+03
  14 63 59 1.60487000E+03
  8 51 63 1.60487000E+03
  16 40 67 1.60487000E+03
  6 43 66 1.60486000E+03
  20 57 61 1.60486000E+03
  39 54 62 1.60486000E+03
  3 57 61 1.60485000E+03
  8 40 67 1.60485000E+03
  22 54 62 1.60484000E+03
  30 43 66 1.60484000E+03
  12 57 61 1.60484000E+03
  20 46 65 1.60483000E+03
  34 60 60 1.60483000E+03
  32 52 63 1.60482000E+03
  24 63 59 1.60482000E+03
  7 54 62 1.60482000E+03
  5 54 62 1.60481000E+03
  13 43 66 1.60481000E+03
  3 46 65 1.60481000E+03
  17 60 60 1.60480000E+03
  15 52 63 1.60480000E+03
  2 60 60 1.60479000E+03
  26 55 61 1.60479000E+03
  25 42 66 1.60479000E+03
  36 58 60 1.60478000E+03
  27 51 63 1.60478000E+03
  29 59 60 1.60478000E+03
  5 43 66 1.60477000E+03
  17 49 64 1.60477000E+03
  25 38 68 1.60476000E+03
  15 41 67 1.60476000E+03
  14 54 62 1.60476000E+03
  8 42 66 1.60475000E+03
  19 58 60 1.60475000E+03
  12 59 60 1.60474000E+03
  33 59 60 1.60474000E+03
  16 63 59 1.60474000E+03
  10 46 65 1.60473000E+03
  8 38 68 1.60473000E+03
  39 45 65 1.60473000E+03
  9 60 60 1.60472000E+03
  39 41 67 1.60472000E+03
  7 52 63 1.60471000E+03
  29 44 65 1.60471000E+03
  22 45 65 1.60471000E+03
  31 53 62 1.60470000E+03
  24 54 62 1.60470000E+03
  18 55 61 1.60469000E+03
  22 41 67 1.60469000E+03
  28 58 60 1.60469000E+03
  5 45 65 1.60468000E+03
  9 49 64 1.60468000E+03
  7 41 67 1.60468000E+03
  1 55 61 1.60467000E+03
  5 41 67 1.60467000E+03
  34 40 67 1.60466000E+03
  40 53 62 1.60466000E+03
  33 54 62 1.60466000E+03
  17 40 67 1.60465000E+03
  38 53 62 1.60465000E+03
  1 44 65 1.60464000E+03
  36 45 65 1.60464000E+03
  29 46 65 1.60464000E+03
  19 49 64 1.60463000E+03
  27 38 68 1.60463000E+03
  13 50 63 1.60463000E+03
  21 44 65 1.60462000E+03
  25 61 59 1.60462000E+03
  33 50 63 1.60461000E+03
  23 53 62 1.60461000E+03
  16 54 62 1.60461000E+03
  14 41 67 1.60460000E+03
  12 46 65 1.60460000E+03
  6 53 62 1.60459000E+03
  35 47 64 1.60459000E+03
  33 39 67 1.60459000E+03
  37 56 61 1.60458000E+03
  31 44 65 1.60458000E+03
  20 55 61 1.60458000E+03
  26 49 64 1.60457000E+03
  24 41 67 1.60457000E+03
  10 53 62 1.60456000E+03
  40 55 61 1.60456000E+03
  16 39 67 1.60456000E+03
  9 40 67 1.60455000E+03
  20 56 61 1.60455000E+03
  28 45 65 1.60454000E+03
  11 49 64 1.60454000E+03
  32 62 59 1.60454000E+03
  3 55 61 1.60453000E+03
  26 38 68 1.60453000E+03
  2 38 68 1.60453000E+03
  40 44 65 1.60452000E+03
  35 49 64 1.60452000E+03
  19 40 67 1.60451000E+03
  40 40 67 1.60451000E+03
  33 41 67 1.60451000E+03
  17 58 60 1.60450000E+03
  23 44 65 1.60450000E+03
  27 61 59 1.60450000E+03
  5 48 64 1.60449000E+03
  25 48 64 1.60449000E+03
  18 49 64 1.60448000E+03
  8 52 63 1.60448000E+03
  23 40 67 1.60448000E+03
  16 41 67 1.60447000E+03
  10 55 61 1.60447000E+03
  27 57 61 1.60446000E+03
  39 50 63 1.60446000E+03
  1 49 64 1.60446000E+03
  37 47 64 1.60445000E+03
  39 51 63 1.60445000E+03
  37 43 66 1.60445000E+03
  10 44 65 1.60444000E+03
  22 50 63 1.60444000E+03
  20 47 64 1.60443000E+03
  32 53 62 1.60443000E+03
  9 58 60 1.60443000E+03
  7 50 63 1.60442000E+03
  1 38 68 1.60442000E+03
  20 43 66 1.60441000E+03
  24 60 60 1.60441000E+03
  9 59 60 1.60441000E+03
  7 51 63 1.60440000E+03
  32 42 66 1.60440000E+03
  5 39 67 1.60440000E+03
  15 42 66 1.60439000E+03
  29 56 61 1.60439000E+03
  19 59 60 1.60438000E+03
  27 48 64 1.60438000E+03
  14 50 63 1.60438000E+03
  33 60 60 1.60437000E+03
  4 53 62 1.60437000E+03
  16 59 60 1.60436000E+03
  16 60 60 1.60436000E+03
  39 42 66 1.60436000E+03
  14 39 67 1.60435000E+03
  31 54 62 1.60435000E+03
  12 44 65 1.60435000E+03
  39 38 68 1.60434000E+03
  36 61 59 1.60434000E+03
  12 45 65 1.60433000E+03
  30 63 59 1.60433000E+03
  24 51 63 1.60433000E+03
  1 56 61 1.60432000E+03
  9 45 65 1.60432000E+03
  36 57 61 1.60431000E+03
  13 62 59 1.60431000E+03
  7 42 66 1.60431000E+03
  13 63 59 1.60430000E+03
  38 54 62 1.60430000E+03
  36 46 65 1.60430000E+03
  19 45 65 1.60429000E+03
  35 59 60 1.60429000E+03
  33 51 63 1.60428000E+03
  27 39 67 1.60428000E+03
  4 44 65 1.60428000E+03
  31 56 61 1.60427000E+03
  8 61 59 1.60427000E+03
  19 46 65 1.60426000E+03
  31 52 63 1.60426000E+03
  8 57 61 1.60426000E+03
  6 54 62 1.60425000E+03
  18 47 64 1.60425000E+03
  27 55 61 1.60425000E+03
  31 41 67 1.60424000E+03
  40 56 61 1.60424000E+03
  18 43 66 1.60423000E+03
  30 54 62 1.60423000E+03
  28 46 65 1.60423000E+03
  1 47 64 1.60422000E+03
  40 52 63 1.60422000E+03
  32 63 59 1.60422000E+03
  3 56 61 1.60421000E+03
  23 56 61 1.60421000E+03
  1 43 66 1.60420000E+03
  5 60 60 1.60420000E+03
  11 46 65 1.60420000E+03
  15 63 59 1.60419000E+03
  23 52 63 1.60419000E+03
  38 45 65 1.60418000E+03
  40 41 67 1.60418000E+03
  34 55 61 1.60418000E+03
  33 42 66 1.60417000E+03
  38 41 67 1.60417000E+03
  25 49 64 1.60417000E+03
  33 38 68 1.60416000E+03
  39 63 59 1.60416000E+03
  23 41 67 1.60415000E+03
  31 43 66 1.60415000E+03
  17 55 61 1.60415000E+03
  10 56 61 1.60414000E+03
  14 60 60 1.60414000E+03
  8 48 64 1.60413000E+03
  6 40 67 1.60413000E+03
  2 55 61 1.60413000E+03
  6 41 67 1.60412000E+03
  33 58 60 1.60412000E+03
  39 52 63 1.60412000E+03
  7 63 59 1.60411000E+03
  10 45 65 1.60411000E+03
  29 50 63 1.60410000E+03
  22 51 63 1.60410000E+03
  32 54 62 1.60410000E+03
  10 41 67 1.60409000E+03
  40 43 66 1.60409000E+03
  16 58 60 1.60408000E+03
  22 52 63 1.60408000E+03
  30 41 67 1.60408000E+03
  12 50 63 1.60407000E+03
  5 51 63 1.60407000E+03
  3 43 66 1.60407000E+03
  15 54 62 1.60406000E+03
  9 55 61 1.60406000E+03
  7 47 64 1.60405000E+03
  27 60 60 1.60405000E+03
  2 57 61 1.60405000E+03
  36 55 61 1.60404000E+03
  25 40 67 1.60404000E+03
  37 46 65 1.60403000E+03
  27 49 64 1.60403000E+03
  21 50 63 1.60403000E+03
  14 51 63 1.60402000E+03
  19 55 61 1.60402000E+03
  23 59 60 1.60402000E+03
  36 44 65 1.60401000E+03
  14 52 63 1.60401000E+03
  4 50 63 1.60400000E+03
  6 59 60 1.60400000E+03
  35 53 62 1.60400000E+03
  19 44 65 1.60399000E+03
  31 50 63 1.60399000E+03
  28 55 61 1.60398000E+03
  40 61 59 1.60398000E+03
  34 49 64 1.60398000E+03
  24 52 63 1.60397000E+03
  32 41 67 1.60397000E+03
  18 53 62 1.60397000E+03
  9 46 65 1.60396000E+03
  21 52 63 1.60396000E+03
  33 63 59 1.60395000E+03
  11 55 61 1.60395000E+03
  1 53 62 1.60395000E+03
  28 44 65 1.60394000E+03
  3 62 59 1.60394000E+03
  40 50 63 1.60394000E+03
  2 49 64 1.60393000E+03
  26 44 65 1.60393000E+03
  38 50 63 1.60392000E+03
  11 44 65 1.60392000E+03
  35 55 61 1.60392000E+03
  25 58 60 1.60391000E+03
  33 47 64 1.60391000E+03
  23 50 63 1.60390000E+03
  15 61 59 1.60390000E+03
  17 38 68 1.60390000E+03
  14 38 68 1.60389000E+03
  8 58 60 1.60389000E+03
  38 39 67 1.60389000E+03
  6 50 63 1.60388000E+03
  35 44 65 1.60388000E+03
  10 62 59 1.60387000E+03
  25 47 64 1.60387000E+03
  39 61 59 1.60387000E+03
  23 39 67 1.60386000E+03
  37 53 62 1.60386000E+03
  39 57 61 1.60385000E+03
  18 44 65 1.60385000E+03
  8 47 64 1.60385000E+03
  36 49 64 1.60384000E+03
  22 61 59 1.60384000E+03
  6 39 67 1.60384000E+03
  30 50 63 1.60383000E+03
  20 53 62 1.60383000E+03
  32 59 60 1.60382000E+03
  7 61 59 1.60382000E+03
  5 61 59 1.60382000E+03
  3 53 62 1.60381000E+03
  30 39 67 1.60381000E+03
  34 56 61 1.60380000E+03
  32 48 64 1.60380000E+03
  37 55 61 1.60380000E+03
  27 58 60 1.60379000E+03
  5 50 63 1.60379000E+03
  13 39 67 1.60379000E+03
  17 56 61 1.60378000E+03
  25 45 65 1.60378000E+03
  15 48 64 1.60377000E+03
  8 49 64 1.60377000E+03
  29 62 59 1.60377000E+03
  14 61 59 1.60376000E+03
  2 56 61 1.60376000E+03
  14 57 61 1.60375000E+03
  37 44 65 1.60375000E+03
  12 62 59 1.60375000E+03
  39 48 64 1.60374000E+03
  29 51 63 1.60374000E+03
  7 59 60 1.60374000E+03
  37 40 67 1.60373000E+03
  27 43 66 1.60373000E+03
  20 44 65 1.60372000E+03
  34 58 60 1.60372000E+03
  24 61 59 1.60372000E+03
  32 50 63 1.60371000E+03
  10 42 66 1.60371000E+03
  26 59 60 1.60370000E+03
  22 48 64 1.60370000E+03
  12 51 63 1.60370000E+03
  5 52 63 1.60369000E+03
  24 57 61 1.60369000E+03
  9 56 61 1.60369000E+03
  3 44 65 1.60368000E+03
  7 48 64 1.60368000E+03
  21 62 59 1.60367000E+03
  15 50 63 1.60367000E+03
  34 47 64 1.60367000E+03
  2 58 60 1.60366000E+03
  32 39 67 1.60366000E+03
  36 56 61 1.60365000E+03
  4 62 59 1.60365000E+03
  34 43 66 1.60365000E+03
  38 60 60 1.60364000E+03
  33 61 59 1.60364000E+03
  36 52 63 1.60364000E+03
  17 47 64 1.60363000E+03
  21 51 63 1.60363000E+03
  15 39 67 1.60362000E+03
  29 53 62 1.60362000E+03
  19 56 61 1.60362000E+03
  27 45 65 1.60361000E+03
  33 57 61 1.60361000E+03
  23 60 60 1.60361000E+03
  31 62 59 1.60360000E+03
  17 43 66 1.60360000E+03
  16 61 59 1.60359000E+03
  14 48 64 1.60359000E+03
  4 51 63 1.60359000E+03
  12 53 62 1.60358000E+03
  2 43 66 1.60358000E+03
  16 57 61 1.60357000E+03
  6 60 60 1.60357000E+03
  39 39 67 1.60357000E+03
  35 54 62 1.60356000E+03
  29 42 66 1.60356000E+03
  31 51 63 1.60356000E+03
  29 38 68 1.60355000E+03
  28 56 61 1.60355000E+03
  40 62 59 1.60354000E+03
  22 39 67 1.60354000E+03
  18 54 62 1.60354000E+03
  12 42 66 1.60353000E+03
  26 56 61 1.60353000E+03
  16 46 65 1.60352000E+03
  34 45 65 1.60352000E+03
  24 48 64 1.60352000E+03
  30 60 60 1.60351000E+03
  20 63 59 1.60351000E+03
  38 62 59 1.60351000E+03
  28 52 63 1.60350000E+03
  9 47 64 1.60350000E+03
  7 39 67 1.60349000E+03
  21 53 62 1.60349000E+03
  11 56 61 1.60349000E+03
  23 62 59 1.60348000E+03
  1 54 62 1.60348000E+03
  9 43 66 1.60347000E+03
  13 60 60 1.60347000E+03
  3 63 59 1.60347000E+03
  11 52 63 1.60346000E+03
  36 47 64 1.60346000E+03
  26 45 65 1.60346000E+03
  2 45 65 1.60345000E+03
  38 51 63 1.60345000E+03
  6 62 59 1.60344000E+03
  36 43 66 1.60344000E+03
  21 42 66 1.60344000E+03
  35 56 61 1.60343000E+03
  19 47 64 1.60343000E+03
  33 48 64 1.60342000E+03
  25 59 60 1.60342000E+03
  23 51 63 1.60342000E+03
  21 38 68 1.60341000E+03
  35 52 63 1.60341000E+03
  19 43 66 1.60341000E+03
  4 42 66 1.60340000E+03
  18 56 61 1.60340000E+03
  8 59 60 1.60339000E+03
  38 40 67 1.60339000E+03
  16 48 64 1.60339000E+03
  6 51 63 1.60338000E+03
  30 62 59 1.60338000E+03
  28 54 62 1.60337000E+03
  4 38 68 1.60337000E+03
  10 63 59 1.60337000E+03
  31 42 66 1.60336000E+03
  35 41 67 1.60336000E+03
  31 38 68 1.60336000E+03
  18 45 65 1.60335000E+03
  26 47 64 1.60335000E+03
  30 51 63 1.60334000E+03
  24 39 67 1.60334000E+03
  20 54 62 1.60334000E+03
  28 43 66 1.60333000E+03
  14 55 61 1.60333000E+03
  32 60 60 1.60333000E+03
  18 41 67 1.60332000E+03
  26 43 66 1.60332000E+03
  11 47 64 1.60331000E+03
  1 45 65 1.60331000E+03
  13 51 63 1.60331000E+03
  3 54 62 1.60330000E+03
  11 43 66 1.60330000E+03
  25 57 61 1.60329000E+03
  15 60 60 1.60329000E+03
  1 41 67 1.60329000E+03
  30 40 67 1.60328000E+03
  38 42 66 1.60328000E+03
  23 42 66 1.60328000E+03
  13 40 67 1.60327000E+03
  39 60 60 1.60327000E+03
  35 43 66 1.60326000E+03
  17 57 61 1.60326000E+03
  25 46 65 1.60326000E+03
  15 49 64 1.60325000E+03
  23 38 68 1.60325000E+03
  37 52 63 1.60324000E+03
  29 63 59 1.60324000E+03
  6 42 66 1.60324000E+03
  10 54 62 1.60323000E+03
  8 46 65 1.60323000E+03
  22 60 60 1.60323000E+03
  6 38 68 1.60322000E+03
  20 52 63 1.60322000E+03
  12 63 59 1.60321000E+03
  39 49 64 1.60321000E+03
  7 60 60 1.60321000E+03
  37 41 67 1.60320000E+03
  30 42 66 1.60320000E+03
  34 59 60 1.60319000E+03
  32 51 63 1.60319000E+03
  16 55 61 1.60319000E+03
  10 43 66 1.60318000E+03
  22 49 64 1.60318000E+03
  30 38 68 1.60318000E+03
  12 52 63 1.60317000E+03
  20 41 67 1.60317000E+03
  13 42 66 1.60316000E+03
  3 45 65 1.60316000E+03
  17 59 60 1.60316000E+03
  7 49 64 1.60315000E+03
  21 63 59 1.60315000E+03
  15 51 63 1.60314000E+03
  5 49 64 1.60314000E+03
  13 38 68 1.60314000E+03
  3 41 67 1.60313000E+03
  22 38 68 1.60313000E+03
  4 63 59 1.60313000E+03
  15 40 67 1.60312000E+03
  36 53 62 1.60312000E+03
  29 54 62 1.60311000E+03
  27 46 65 1.60311000E+03
  13 58 60 1.60311000E+03
  5 38 68 1.60310000E+03
  31 63 59 1.60310000E+03
  14 49 64 1.60309000E+03
  4 52 63 1.60309000E+03
  12 54 62 1.60309000E+03
  39 40 67 1.60308000E+03
  35 50 63 1.60308000E+03
  40 63 59 1.60308000E+03
  22 40 67 1.60307000E+03
  26 57 61 1.60307000E+03
  34 46 65 1.60306000E+03
  24 49 64 1.60306000E+03
  10 61 59 1.60306000E+03
  32 38 68 1.60305000E+03
  18 50 63 1.60305000E+03
  8 53 62 1.60305000E+03
  38 63 59 1.60304000E+03
  28 53 62 1.60304000E+03
  21 54 62 1.60303000E+03
  40 59 60 1.60303000E+03
  23 63 59 1.60303000E+03
  5 40 67 1.60302000E+03
  17 46 65 1.60302000E+03
  15 38 68 1.60301000E+03
  4 54 62 1.60301000E+03
  2 46 65 1.60301000E+03
  38 52 63 1.60300000E+03
  6 63 59 1.60300000E+03
  33 49 64 1.60300000E+03
  25 55 61 1.60299000E+03
  23 47 64 1.60299000E+03
  29 41 67 1.60298000E+03
  17 62 59 1.60298000E+03
  14 40 67 1.60298000E+03
  16 49 64 1.60297000E+03
  8 55 61 1.60297000E+03
  12 41 67 1.60296000E+03
  39 58 60 1.60296000E+03
  1 57 61 1.60296000E+03
  7 38 68 1.60295000E+03
  31 39 67 1.60295000E+03
  24 40 67 1.60295000E+03
  8 44 65 1.60294000E+03
  22 58 60 1.60294000E+03
  12 61 59 1.60293000E+03
  20 50 63 1.60293000E+03
  32 61 59 1.60293000E+03
  10 48 64 1.60292000E+03
  7 58 60 1.60292000E+03
  13 52 63 1.60291000E+03
  21 41 67 1.60291000E+03
  32 57 61 1.60291000E+03
  5 58 60 1.60290000E+03
  9 62 59 1.60290000E+03
  3 50 63 1.60290000E+03
  22 47 64 1.60289000E+03
  4 41 67 1.60289000E+03
  40 39 67 1.60288000E+03
  5 47 64 1.60288000E+03
  3 39 67 1.60288000E+03
  17 53 62 1.60287000E+03
  15 45 65 1.60287000E+03
  27 56 61 1.60286000E+03
  14 58 60 1.60286000E+03
  4 61 59 1.60286000E+03
  2 53 62 1.60285000E+03
  4 57 61 1.60285000E+03
  37 42 66 1.60285000E+03
  14 47 64 1.60284000E+03
  24 58 60 1.60284000E+03
  10 39 67 1.60283000E+03
  14 43 66 1.60283000E+03
  12 48 64 1.60283000E+03
  26 62 59 1.60282000E+03
  24 59 60 1.60282000E+03
  9 53 62 1.60281000E+03
  7 45 65 1.60281000E+03
  21 59 60 1.60281000E+03
  11 62 59 1.60280000E+03
  1 60 60 1.60280000E+03
  34 44 65 1.60280000E+03
  38 61 59 1.60279000E+03
  9 42 66 1.60279000E+03
  36 54 62 1.60278000E+03
  17 44 65 1.60278000E+03
  21 48 64 1.60278000E+03
  35 62 59 1.60277000E+03
  19 53 62 1.60277000E+03
  31 59 60 1.60277000E+03
  2 44 65 1.60276000E+03
  6 61 59 1.60276000E+03
  35 63 59 1.60275000E+03
  19 54 62 1.60275000E+03
  14 45 65 1.60275000E+03
  4 48 64 1.60274000E+03
  31 60 60 1.60274000E+03
  18 62 59 1.60273000E+03
  2 40 67 1.60273000E+03
  6 57 61 1.60273000E+03
  29 39 67 1.60272000E+03
  1 62 59 1.60272000E+03
  30 61 59 1.60272000E+03
  18 51 63 1.60271000E+03
  12 39 67 1.60271000E+03
  26 53 62 1.60270000E+03
  30 57 61 1.60270000E+03
  24 45 65 1.60270000E+03
  9 44 65 1.60269000E+03
  40 60 60 1.60269000E+03
  13 61 59 1.60268000E+03
  11 53 62 1.60268000E+03
  1 51 63 1.60268000E+03
  13 57 61 1.60267000E+03
  3 60 60 1.60267000E+03
  26 42 66 1.60267000E+03
  38 48 64 1.60266000E+03
  40 49 64 1.60266000E+03
  21 39 67 1.60265000E+03
  25 56 61 1.60265000E+03
  33 45 65 1.60265000E+03
  37 62 59 1.60264000E+03
  38 49 64 1.60264000E+03
  1 40 67 1.60263000E+03
  36 41 67 1.60263000E+03
  13 46 65 1.60263000E+03
  25 52 63 1.60262000E+03
  21 40 67 1.60262000E+03
  33 46 65 1.60262000E+03
  23 49 64 1.60261000E+03
  4 39 67 1.60261000E+03
  37 63 59 1.60260000E+03
  15 55 61 1.60260000E+03
  8 56 61 1.60260000E+03
  16 45 65 1.60259000E+03
  6 48 64 1.60259000E+03
  20 62 59 1.60258000E+03
  10 60 60 1.60258000E+03
  6 49 64 1.60258000E+03
  31 40 67 1.60257000E+03
  18 42 66 1.60257000E+03
  39 55 61 1.60257000E+03
  22 59 60 1.60256000E+03
  30 48 64 1.60256000E+03
  28 40 67 1.60255000E+03
  10 49 64 1.60255000E+03
  40 51 63 1.60255000E+03
  18 38 68 1.60254000E+03
  28 41 67 1.60254000E+03
  1 42 66 1.60253000E+03
  5 59 60 1.60253000E+03
  13 48 64 1.60253000E+03
  9 63 59 1.60252000E+03
  3 51 63 1.60252000E+03
  11 40 67 1.60252000E+03
  15 57 61 1.60251000E+03
  7 55 61 1.60251000E+03
  34 50 63 1.60250000E+03
  17 54 62 1.60250000E+03
  25 43 66 1.60250000E+03
  29 60 60 1.60249000E+03
  37 54 62 1.60249000E+03
  21 58 60 1.60249000E+03
  14 59 60 1.60248000E+03
  10 51 63 1.60248000E+03
  8 43 66 1.60247000E+03
  12 60 60 1.60247000E+03
  4 58 60 1.60247000E+03
  7 57 61 1.60246000E+03
  20 42 66 1.60246000E+03
  31 58 60 1.60245000E+03
  10 40 67 1.60245000E+03
  22 46 65 1.60245000E+03
  20 38 68 1.60244000E+03
  26 63 59 1.60244000E+03
  32 49 64 1.60244000E+03
  40 38 68 1.60243000E+03
  9 54 62 1.60243000E+03
  3 42 66 1.60242000E+03
  24 55 61 1.60242000E+03
  28 59 60 1.60242000E+03
  21 60 60 1.60241000E+03
  5 46 65 1.60241000E+03
  3 38 68 1.60240000E+03
  11 59 60 1.60240000E+03
  4 60 60 1.60240000E+03
  2 52 63 1.60239000E+03
  40 58 60 1.60239000E+03
  24 44 65 1.60239000E+03
  17 45 65 1.60238000E+03
  38 58 60 1.60238000E+03
  36 50 63 1.60237000E+03
  17 41 67 1.60237000E+03
  33 55 61 1.60237000E+03
  23 58 60 1.60236000E+03
  29 52 63 1.60236000E+03
  14 46 65 1.60235000E+03
  4 49 64 1.60235000E+03
  18 63 59 1.60235000E+03
  19 50 63 1.60234000E+03
  6 58 60 1.60234000E+03
  33 44 65 1.60234000E+03
  1 63 59 1.60233000E+03
  37 61 59 1.60233000E+03
  12 40 67 1.60232000E+03
  26 54 62 1.60232000E+03
  31 45 65 1.60232000E+03
  24 46 65 1.60231000E+03
  16 44 65 1.60231000E+03
  30 58 60 1.60230000E+03
  20 61 59 1.60230000E+03
  28 50 63 1.60230000E+03
  11 54 62 1.60229000E+03
  1 52 63 1.60229000E+03
  9 41 67 1.60229000E+03
  3 61 59 1.60228000E+03
  11 50 63 1.60228000E+03
  30 47 64 1.60227000E+03
  28 39 67 1.60227000E+03
  32 56 61 1.60227000E+03
  40 45 65 1.60226000E+03
  26 39 67 1.60226000E+03
  19 41 67 1.60225000E+03
  13 47 64 1.60225000E+03
  11 39 67 1.60225000E+03
  4 40 67 1.60224000E+03
  25 53 62 1.60224000E+03
  15 56 61 1.60224000E+03
  23 45 65 1.60223000E+03
  37 59 60 1.60223000E+03
  27 62 59 1.60222000E+03
  6 45 65 1.60222000E+03
  35 39 67 1.60222000E+03
  39 56 61 1.60221000E+03
  37 48 64 1.60221000E+03
  30 49 64 1.60220000E+03
  22 55 61 1.60220000E+03
  26 41 67 1.60220000E+03
  32 58 60 1.60219000E+03
  40 47 64 1.60219000E+03
  10 50 63 1.60219000E+03
  18 39 67 1.60218000E+03
  22 56 61 1.60218000E+03
  30 45 65 1.60217000E+03
  20 48 64 1.60217000E+03
  13 49 64 1.60217000E+03
  3 52 63 1.60216000E+03
  34 62 59 1.60216000E+03
  11 41 67 1.60216000E+03
  5 55 61 1.60215000E+03
  7 56 61 1.60215000E+03
  15 58 60 1.60214000E+03
  3 48 64 1.60214000E+03
  32 47 64 1.60214000E+03
  34 51 63 1.60213000E+03
  2 62 59 1.60213000E+03
  32 43 66 1.60212000E+03
  5 44 65 1.60212000E+03
  36 60 60 1.60212000E+03
  17 50 63 1.60211000E+03
  25 44 65 1.60211000E+03
  15 47 64 1.60211000E+03
  37 50 63 1.60210000E+03
  29 61 59 1.60210000E+03
  27 53 62 1.60209000E+03
  17 51 63 1.60209000E+03
  10 52 63 1.60209000E+03
  15 43 66 1.60208000E+03
  29 57 61 1.60208000E+03
  19 60 60 1.60207000E+03
  14 56 61 1.60207000E+03
  4 59 60 1.60207000E+03
  2 51 63 1.60206000E+03
  39 47 64 1.60206000E+03
  37 39 67 1.60206000E+03
  27 42 66 1.60205000E+03
  39 43 66 1.60205000E+03
  20 39 67 1.60204000E+03
  34 53 62 1.60204000E+03
  24 56 61 1.60204000E+03
  32 45 65 1.60203000E+03
  28 60 60 1.60203000E+03
  1 61 59 1.60202000E+03
  9 50 63 1.60202000E+03
  36 62 59 1.60202000E+03
  22 43 66 1.60201000E+03
  21 61 59 1.60201000E+03
  26 60 60 1.60201000E+03
  9 51 63 1.60200000E+03
  7 43 66 1.60200000E+03
  21 57 61 1.60199000E+03
  11 60 60 1.60199000E+03
  19 62 59 1.60199000E+03
  34 42 66 1.60198000E+03
  38 59 60 1.60198000E+03
  36 51 63 1.60197000E+03
  34 38 68 1.60197000E+03
  33 56 61 1.60197000E+03
  27 44 65 1.60196000E+03
  31 61 59 1.60196000E+03
  17 42 66 1.60196000E+03
  21 46 65 1.60195000E+03
  29 48 64 1.60195000E+03
  35 60 60 1.60194000E+03
  25 63 59 1.60194000E+03
  19 51 63 1.60194000E+03
  33 52 63 1.60193000E+03
  27 40 67 1.60193000E+03
  4 45 65 1.60192000E+03
  31 57 61 1.60192000E+03
  2 42 66 1.60192000E+03
  16 56 61 1.60191000E+03
  28 62 59 1.60191000E+03
  4 46 65 1.60191000E+03
  18 60 60 1.60190000E+03
  8 63 59 1.60190000E+03
  16 52 63 1.60189000E+03
  31 46 65 1.60189000E+03
  30 59 60 1.60189000E+03
  24 47 64 1.60188000E+03
  28 51 63 1.60188000E+03
  40 57 61 1.60188000E+03
  26 51 63 1.60187000E+03
  24 43 66 1.60187000E+03
  38 57 61 1.60186000E+03
  23 61 59 1.60186000E+03
  1 48 64 1.60186000E+03
  13 59 60 1.60185000E+03
  11 51 63 1.60185000E+03
  23 57 61 1.60184000E+03
  36 42 66 1.60184000E+03
  40 46 65 1.60184000E+03
  26 40 67 1.60183000E+03
  38 46 65 1.60183000E+03
  36 38 68 1.60183000E+03
  35 51 63 1.60182000E+03
  25 54 62 1.60182000E+03
  19 42 66 1.60181000E+03
  33 43 66 1.60181000E+03
  23 46 65 1.60181000E+03
  37 60 60 1.60180000E+03
  31 48 64 1.60180000E+03
  27 63 59 1.60179000E+03
  16 47 64 1.60179000E+03
  19 38 68 1.60179000E+03
  8 54 62 1.60178000E+03
  16 43 66 1.60178000E+03
  6 46 65 1.60178000E+03
  20 60 60 1.60177000E+03
  35 40 67 1.60177000E+03
  37 49 64 1.60176000E+03
  29 55 61 1.60176000E+03
  27 47 64 1.60176000E+03
  28 42 66 1.60175000E+03
  40 48 64 1.60175000E+03
  18 40 67 1.60174000E+03
  22 57 61 1.60174000E+03
  30 46 65 1.60174000E+03
  20 49 64 1.60173000E+03
  28 38 68 1.60173000E+03
  1 39 67 1.60173000E+03
  34 63 59 1.60172000E+03
  12 55 61 1.60172000E+03
  5 56 61 1.60171000E+03
  11 42 66 1.60171000E+03
  15 59 60 1.60171000E+03
  23 48 64 1.60170000E+03
  5 57 61 1.60170000E+03
  3 49 64 1.60169000E+03
  11 38 68 1.60169000E+03
  17 63 59 1.60169000E+03
  34 52 63 1.60168000E+03
  2 63 59 1.60168000E+03
  26 58 60 1.60168000E+03
  24 50 63 1.60167000E+03
  35 42 66 1.60167000E+03
  39 59 60 1.60166000E+03
  37 51 63 1.60166000E+03
  27 54 62 1.60166000E+03
  21 55 61 1.60165000E+03
  11 58 60 1.60165000E+03
  35 38 68 1.60164000E+03
  17 52 63 1.60164000E+03
  25 41 67 1.60164000E+03
  8 45 65 1.60163000E+03
  20 51 63 1.60163000E+03
  4 55 61 1.60163000E+03
  2 47 64 1.60162000E+03
  8 41 67 1.60162000E+03
  35 58 60 1.60161000E+03
  31 55 61 1.60161000E+03
  20 40 67 1.60161000E+03
  34 54 62 1.60160000E+03
  32 46 65 1.60160000E+03
  18 58 60 1.60160000E+03
  16 50 63 1.60159000E+03
  36 63 59 1.60159000E+03
  10 38 68 1.60158000E+03
  9 52 63 1.60158000E+03
  3 40 67 1.60158000E+03
  15 46 65 1.60157000E+03
  1 58 60 1.60157000E+03
  27 52 63 1.60156000E+03
  19 63 59 1.60156000E+03
  2 54 62 1.60156000E+03
  30 53 62 1.60155000E+03
  38 55 61 1.60155000E+03
  23 55 61 1.60155000E+03
  39 46 65 1.60154000E+03
  29 49 64 1.60154000E+03
  37 38 68 1.60153000E+03
  19 52 63 1.60153000E+03
  27 41 67 1.60153000E+03
  13 53 62 1.60152000E+03
  11 45 65 1.60152000E+03
  15 62 59 1.60151000E+03
  28 63 59 1.60151000E+03
  38 44 65 1.60151000E+03
  6 55 61 1.60150000E+03
  12 49 64 1.60150000E+03
  37 58 60 1.60150000E+03
  7 46 65 1.60149000E+03
  11 63 59 1.60149000E+03
  35 45 65 1.60148000E+03
  39 62 59 1.60148000E+03
  31 47 64 1.60148000E+03
  6 44 65 1.60147000E+03
  30 55 61 1.60147000E+03
  20 58 60 1.60146000E+03
  28 47 64 1.60146000E+03
  12 38 68 1.60146000E+03
  26 52 63 1.60145000E+03
  34 41 67 1.60145000E+03
  9 38 68 1.60145000E+03
  22 62 59 1.60144000E+03
  21 49 64 1.60144000E+03
  13 55 61 1.60143000E+03
  3 58 60 1.60143000E+03
  7 62 59 1.60143000E+03
  30 44 65 1.60142000E+03
  5 62 59 1.60142000E+03
  34 61 59 1.60141000E+03
  40 42 66 1.60141000E+03
  2 41 67 1.60141000E+03
  34 57 61 1.60140000E+03
  29 40 67 1.60140000E+03
  13 44 65 1.60140000E+03
  3 47 64 1.60139000E+03
  31 49 64 1.60139000E+03
  17 61 59 1.60138000E+03
  25 50 63 1.60138000E+03
  15 53 62 1.60138000E+03
  27 59 60 1.60137000E+03
  2 61 59 1.60137000E+03
  18 52 63 1.60136000E+03
  10 58 60 1.60136000E+03
  14 62 59 1.60136000E+03
  8 50 63 1.60135000E+03
  25 39 67 1.60135000E+03
  39 53 62 1.60135000E+03
  37 45 65 1.60134000E+03
  32 55 61 1.60134000E+03
  10 47 64 1.60133000E+03
  8 39 67 1.60133000E+03
  22 53 62 1.60133000E+03
  12 56 61 1.60132000E+03
  20 45 65 1.60132000E+03
  24 62 59 1.60132000E+03
  9 61 59 1.60131000E+03
  7 53 62 1.60131000E+03
  5 53 62 1.60130000E+03
  9 57 61 1.60130000E+03
  32 44 65 1.60130000E+03
  38 38 68 1.60129000E+03
  22 42 66 1.60129000E+03
  34 48 64 1.60128000E+03
  2 59 60 1.60128000E+03
  37 42 49 1.60527000E+03
  10 43 48 1.60526000E+03
  23 53 47 1.60526000E+03
  14 47 47 1.60525000E+03
  8 35 51 1.60525000E+03
  30 38 50 1.60524000E+03
  20 41 49 1.60524000E+03
  25 57 46 1.60524000E+03
  10 39 50 1.60523000E+03
  12 48 47 1.60523000E+03
  6 53 47 1.60522000E+03
  3 41 49 1.60522000E+03
  7 45 48 1.60521000E+03
  5 50 47 1.60521000E+03
  37 56 46 1.60521000E+03
  22 38 50 1.60520000E+03
  34 44 48 1.60520000E+03
  10 53 47 1.60519000E+03
  20 56 46 1.60519000E+03
  5 38 50 1.60518000E+03
  9 42 49 1.60518000E+03
  17 44 48 1.60518000E+03
  2 52 47 1.60517000E+03
  21 48 47 1.60517000E+03
  15 36 51 1.60516000E+03
  29 51 47 1.60516000E+03
  2 44 48 1.60515000E+03
  14 45 48 1.60515000E+03
  4 48 47 1.60514000E+03
  2 40 50 1.60514000E+03
  12 51 47 1.60514000E+03
  39 36 51 1.60513000E+03
  29 39 50 1.60513000E+03
  22 36 51 1.60512000E+03
  27 57 46 1.60512000E+03
  12 39 50 1.60511000E+03
  24 45 48 1.60511000E+03
  26 54 46 1.60511000E+03
  9 44 48 1.60510000E+03
  7 36 51 1.60510000E+03
  36 52 47 1.60509000E+03
  5 36 51 1.60509000E+03
  21 51 47 1.60508000E+03
  11 54 46 1.60508000E+03
  34 35 51 1.60508000E+03
  36 44 48 1.60507000E+03
  26 42 49 1.60507000E+03
  38 48 47 1.60506000E+03
  4 51 47 1.60506000E+03
  17 35 51 1.60505000E+03
  21 39 50 1.60505000E+03
  19 44 48 1.60504000E+03
  33 45 48 1.60504000E+03
  35 54 46 1.60504000E+03
  2 35 51 1.60503000E+03
  31 51 47 1.60503000E+03
  14 36 51 1.60502000E+03
  4 39 50 1.60502000E+03
  16 45 48 1.60501000E+03
  6 48 47 1.60501000E+03
  18 54 46 1.60501000E+03
  28 52 47 1.60500000E+03
  26 57 46 1.60500000E+03
  1 54 46 1.60499000E+03
  31 40 50 1.60499000E+03
  18 42 49 1.60498000E+03
  11 52 47 1.60498000E+03
  30 48 47 1.60498000E+03
  28 40 50 1.60497000E+03
  38 51 47 1.60497000E+03
  1 42 49 1.60496000E+03
  13 48 47 1.60496000E+03
  23 51 47 1.60495000E+03
  11 40 50 1.60495000E+03
  35 52 47 1.60495000E+03
  25 55 46 1.60494000E+03
  38 39 50 1.60494000E+03
  6 51 47 1.60493000E+03
  32 46 47 1.60493000E+03
  25 47 47 1.60492000E+03
  40 35 51 1.60492000E+03
  23 39 50 1.60491000E+03
  13 37 51 1.60491000E+03
  8 55 46 1.60491000E+03
  15 46 47 1.60490000E+03
  8 47 47 1.60490000E+03
  6 39 50 1.60489000E+03
  17 50 47 1.60489000E+03
  1 57 46 1.60488000E+03
  37 50 47 1.60488000E+03
  30 51 47 1.60488000E+03
  20 54 46 1.60487000E+03
  10 52 47 1.60487000E+03
  13 51 47 1.60486000E+03
  3 54 46 1.60486000E+03
  39 46 47 1.60485000E+03
  37 38 50 1.60485000E+03
  20 42 49 1.60485000E+03
  14 43 48 1.60484000E+03
  32 48 47 1.60484000E+03
  10 40 50 1.60483000E+03
  32 49 47 1.60483000E+03
  3 42 49 1.60482000E+03
  7 46 47 1.60482000E+03
  9 50 47 1.60482000E+03
  37 52 47 1.60481000E+03
  27 55 46 1.60481000E+03
  17 53 47 1.60480000E+03
  10 54 46 1.60480000E+03
  34 41 49 1.60479000E+03
  17 45 48 1.60479000E+03
  20 52 47 1.60478000E+03
  2 53 47 1.60478000E+03
  15 37 51 1.60478000E+03
  9 38 50 1.60477000E+03
  10 42 49 1.60477000E+03
  4 49 47 1.60476000E+03