# File generated by Flopy version 3.9.2 on 02/19/2025 at 11:48:05.
BEGIN options
END options

BEGIN timing
  TDIS6  gfw.tdis
END timing

BEGIN models
  gwf6  gfw.nam  gfw
END models

BEGIN exchanges
END exchanges

BEGIN solutiongroup  1
  ims6  gfw.ims  gfw
END solutiongroup  1

