# Name file for MODPATH 7, generated by Flopy version 3.9.2.
MPBAS      mp7.mpbas
GRBDIS     .\gfw.dis.grb
TDIS       .\gfw.tdis
HEAD       .\gfw.hds
BUDGET     .\gfw.cbc
