# MPSIM package for MODPATH 7 generated by Flopy 3.9.2
mp7.mpnam
mp7.mplst
2 1 1 1 1 0
mp7.mpend
mp7.mppth
0
1
0
2
1
1
1
PG1
1
0.0
INTERNAL
3
         1        33        53             0.5             0.5             0.5               0         0
         1        33        54             0.5             0.5             0.5               0         0
         1        33        55             0.5             0.5             0.5               0         0
         1        33        56             0.5             0.5             0.5               0         0
         1        33        57             0.5             0.5             0.5               0         0
         1        33        58             0.5             0.5             0.5               0         0
         1        34        52             0.5             0.5             0.5               0         0
         1        34        53             0.5             0.5             0.5               0         0
         1        34        54             0.5             0.5             0.5               0         0
         1        34        55             0.5             0.5             0.5               0         0
         1        34        56             0.5             0.5             0.5               0         0
         1        34        57             0.5             0.5             0.5               0         0
         1        34        58             0.5             0.5             0.5               0         0
         1        34        59             0.5             0.5             0.5               0         0
         1        34        60             0.5             0.5             0.5               0         0
         1        34        61             0.5             0.5             0.5               0         0
         1        35        51             0.5             0.5             0.5               0         0
         1        35        52             0.5             0.5             0.5               0         0
         1        35        53             0.5             0.5             0.5               0         0
         1        35        54             0.5             0.5             0.5               0         0
         1        35        55             0.5             0.5             0.5               0         0
         1        35        56             0.5             0.5             0.5               0         0
         1        35        57             0.5             0.5             0.5               0         0
         1        35        58             0.5             0.5             0.5               0         0
         1        35        59             0.5             0.5             0.5               0         0
         1        35        60             0.5             0.5             0.5               0         0
         1        35        61             0.5             0.5             0.5               0         0
         1        35        62             0.5             0.5             0.5               0         0
         1        35        63             0.5             0.5             0.5               0         0
         1        35        64             0.5             0.5             0.5               0         0
         1        36        51             0.5             0.5             0.5               0         0
         1        36        52             0.5             0.5             0.5               0         0
         1        36        53             0.5             0.5             0.5               0         0
         1        36        54             0.5             0.5             0.5               0         0
         1        36        55             0.5             0.5             0.5               0         0
         1        36        56             0.5             0.5             0.5               0         0
         1        36        57             0.5             0.5             0.5               0         0
         1        36        58             0.5             0.5             0.5               0         0
         1        36        59             0.5             0.5             0.5               0         0
         1        36        60             0.5             0.5             0.5               0         0
         1        36        61             0.5             0.5             0.5               0         0
         1        36        62             0.5             0.5             0.5               0         0
         1        36        63             0.5             0.5             0.5               0         0
         1        36        64             0.5             0.5             0.5               0         0
         1        36        65             0.5             0.5             0.5               0         0
         1        36        66             0.5             0.5             0.5               0         0
         1        36        67             0.5             0.5             0.5               0         0
         1        37        51             0.5             0.5             0.5               0         0
         1        37        52             0.5             0.5             0.5               0         0
         1        37        53             0.5             0.5             0.5               0         0
         1        37        54             0.5             0.5             0.5               0         0
         1        37        55             0.5             0.5             0.5               0         0
         1        37        56             0.5             0.5             0.5               0         0
         1        37        57             0.5             0.5             0.5               0         0
         1        37        58             0.5             0.5             0.5               0         0
         1        37        59             0.5             0.5             0.5               0         0
         1        37        60             0.5             0.5             0.5               0         0
         1        37        61             0.5             0.5             0.5               0         0
         1        37        62             0.5             0.5             0.5               0         0
         1        37        63             0.5             0.5             0.5               0         0
         1        37        64             0.5             0.5             0.5               0         0
         1        37        65             0.5             0.5             0.5               0         0
         1        37        66             0.5             0.5             0.5               0         0
         1        37        67             0.5             0.5             0.5               0         0
         1        37        68             0.5             0.5             0.5               0         0
         1        38        50             0.5             0.5             0.5               0         0
         1        38        51             0.5             0.5             0.5               0         0
         1        38        52             0.5             0.5             0.5               0         0
         1        38        53             0.5             0.5             0.5               0         0
         1        38        54             0.5             0.5             0.5               0         0
         1        38        55             0.5             0.5             0.5               0         0
         1        38        56             0.5             0.5             0.5               0         0
         1        38        57             0.5             0.5             0.5               0         0
         1        38        58             0.5             0.5             0.5               0         0
         1        38        59             0.5             0.5             0.5               0         0
         1        38        60             0.5             0.5             0.5               0         0
         1        38        61             0.5             0.5             0.5               0         0
         1        38        62             0.5             0.5             0.5               0         0
         1        38        63             0.5             0.5             0.5               0         0
         1        38        64             0.5             0.5             0.5               0         0
         1        38        65             0.5             0.5             0.5               0         0
         1        38        66             0.5             0.5             0.5               0         0
         1        38        67             0.5             0.5             0.5               0         0
         1        38        68             0.5             0.5             0.5               0         0
         1        39        50             0.5             0.5             0.5               0         0
         1        39        51             0.5             0.5             0.5               0         0
         1        39        52             0.5             0.5             0.5               0         0
         1        39        53             0.5             0.5             0.5               0         0
         1        39        54             0.5             0.5             0.5               0         0
         1        39        55             0.5             0.5             0.5               0         0
         1        39        56             0.5             0.5             0.5               0         0
         1        39        57             0.5             0.5             0.5               0         0
         1        39        58             0.5             0.5             0.5               0         0
         1        39        59             0.5             0.5             0.5               0         0
         1        39        60             0.5             0.5             0.5               0         0
         1        39        61             0.5             0.5             0.5               0         0
         1        39        62             0.5             0.5             0.5               0         0
         1        39        63             0.5             0.5             0.5               0         0
         1        39        64             0.5             0.5             0.5               0         0
         1        39        65             0.5             0.5             0.5               0         0
         1        39        66             0.5             0.5             0.5               0         0
         1        39        67             0.5             0.5             0.5               0         0
         1        40        50             0.5             0.5             0.5               0         0
         1        40        51             0.5             0.5             0.5               0         0
         1        40        52             0.5             0.5             0.5               0         0
         1        40        53             0.5             0.5             0.5               0         0
         1        40        54             0.5             0.5             0.5               0         0
         1        40        55             0.5             0.5             0.5               0         0
         1        40        56             0.5             0.5             0.5               0         0
         1        40        57             0.5             0.5             0.5               0         0
         1        40        58             0.5             0.5             0.5               0         0
         1        40        59             0.5             0.5             0.5               0         0
         1        40        60             0.5             0.5             0.5               0         0
         1        40        61             0.5             0.5             0.5               0         0
         1        40        62             0.5             0.5             0.5               0         0
         1        40        63             0.5             0.5             0.5               0         0
         1        40        64             0.5             0.5             0.5               0         0
         1        40        65             0.5             0.5             0.5               0         0
         1        40        66             0.5             0.5             0.5               0         0
         1        40        67             0.5             0.5             0.5               0         0
         1        41        49             0.5             0.5             0.5               0         0
         1        41        50             0.5             0.5             0.5               0         0
         1        41        51             0.5             0.5             0.5               0         0
         1        41        52             0.5             0.5             0.5               0         0
         1        41        53             0.5             0.5             0.5               0         0
         1        41        54             0.5             0.5             0.5               0         0
         1        41        55             0.5             0.5             0.5               0         0
         1        41        56             0.5             0.5             0.5               0         0
         1        41        57             0.5             0.5             0.5               0         0
         1        41        58             0.5             0.5             0.5               0         0
         1        41        59             0.5             0.5             0.5               0         0
         1        41        60             0.5             0.5             0.5               0         0
         1        41        61             0.5             0.5             0.5               0         0
         1        41        62             0.5             0.5             0.5               0         0
         1        41        63             0.5             0.5             0.5               0         0
         1        41        64             0.5             0.5             0.5               0         0
         1        41        65             0.5             0.5             0.5               0         0
         1        41        66             0.5             0.5             0.5               0         0
         1        41        67             0.5             0.5             0.5               0         0
         1        42        49             0.5             0.5             0.5               0         0
         1        42        50             0.5             0.5             0.5               0         0
         1        42        51             0.5             0.5             0.5               0         0
         1        42        52             0.5             0.5             0.5               0         0
         1        42        53             0.5             0.5             0.5               0         0
         1        42        54             0.5             0.5             0.5               0         0
         1        42        55             0.5             0.5             0.5               0         0
         1        42        56             0.5             0.5             0.5               0         0
         1        42        57             0.5             0.5             0.5               0         0
         1        42        58             0.5             0.5             0.5               0         0
         1        42        59             0.5             0.5             0.5               0         0
         1        42        60             0.5             0.5             0.5               0         0
         1        42        61             0.5             0.5             0.5               0         0
         1        42        62             0.5             0.5             0.5               0         0
         1        42        63             0.5             0.5             0.5               0         0
         1        42        64             0.5             0.5             0.5               0         0
         1        42        65             0.5             0.5             0.5               0         0
         1        42        66             0.5             0.5             0.5               0         0
         1        43        48             0.5             0.5             0.5               0         0
         1        43        49             0.5             0.5             0.5               0         0
         1        43        50             0.5             0.5             0.5               0         0
         1        43        51             0.5             0.5             0.5               0         0
         1        43        52             0.5             0.5             0.5               0         0
         1        43        53             0.5             0.5             0.5               0         0
         1        43        54             0.5             0.5             0.5               0         0
         1        43        55             0.5             0.5             0.5               0         0
         1        43        56             0.5             0.5             0.5               0         0
         1        43        57             0.5             0.5             0.5               0         0
         1        43        58             0.5             0.5             0.5               0         0
         1        43        59             0.5             0.5             0.5               0         0
         1        43        60             0.5             0.5             0.5               0         0
         1        43        61             0.5             0.5             0.5               0         0
         1        43        62             0.5             0.5             0.5               0         0
         1        43        63             0.5             0.5             0.5               0         0
         1        43        64             0.5             0.5             0.5               0         0
         1        43        65             0.5             0.5             0.5               0         0
         1        43        66             0.5             0.5             0.5               0         0
         1        44        48             0.5             0.5             0.5               0         0
         1        44        49             0.5             0.5             0.5               0         0
         1        44        50             0.5             0.5             0.5               0         0
         1        44        51             0.5             0.5             0.5               0         0
         1        44        52             0.5             0.5             0.5               0         0
         1        44        53             0.5             0.5             0.5               0         0
         1        44        54             0.5             0.5             0.5               0         0
         1        44        55             0.5             0.5             0.5               0         0
         1        44        56             0.5             0.5             0.5               0         0
         1        44        57             0.5             0.5             0.5               0         0
         1        44        58             0.5             0.5             0.5               0         0
         1        44        59             0.5             0.5             0.5               0         0
         1        44        60             0.5             0.5             0.5               0         0
         1        44        61             0.5             0.5             0.5               0         0
         1        44        62             0.5             0.5             0.5               0         0
         1        44        63             0.5             0.5             0.5               0         0
         1        44        64             0.5             0.5             0.5               0         0
         1        44        65             0.5             0.5             0.5               0         0
         1        45        48             0.5             0.5             0.5               0         0
         1        45        49             0.5             0.5             0.5               0         0
         1        45        50             0.5             0.5             0.5               0         0
         1        45        51             0.5             0.5             0.5               0         0
         1        45        52             0.5             0.5             0.5               0         0
         1        45        53             0.5             0.5             0.5               0         0
         1        45        54             0.5             0.5             0.5               0         0
         1        45        55             0.5             0.5             0.5               0         0
         1        45        56             0.5             0.5             0.5               0         0
         1        45        57             0.5             0.5             0.5               0         0
         1        45        58             0.5             0.5             0.5               0         0
         1        45        59             0.5             0.5             0.5               0         0
         1        45        60             0.5             0.5             0.5               0         0
         1        45        61             0.5             0.5             0.5               0         0
         1        45        62             0.5             0.5             0.5               0         0
         1        45        63             0.5             0.5             0.5               0         0
         1        45        64             0.5             0.5             0.5               0         0
         1        45        65             0.5             0.5             0.5               0         0
         1        46        47             0.5             0.5             0.5               0         0
         1        46        48             0.5             0.5             0.5               0         0
         1        46        49             0.5             0.5             0.5               0         0
         1        46        50             0.5             0.5             0.5               0         0
         1        46        51             0.5             0.5             0.5               0         0
         1        46        52             0.5             0.5             0.5               0         0
         1        46        53             0.5             0.5             0.5               0         0
         1        46        54             0.5             0.5             0.5               0         0
         1        46        55             0.5             0.5             0.5               0         0
         1        46        56             0.5             0.5             0.5               0         0
         1        46        57             0.5             0.5             0.5               0         0
         1        46        58             0.5             0.5             0.5               0         0
         1        46        59             0.5             0.5             0.5               0         0
         1        46        60             0.5             0.5             0.5               0         0
         1        46        61             0.5             0.5             0.5               0         0
         1        46        62             0.5             0.5             0.5               0         0
         1        46        63             0.5             0.5             0.5               0         0
         1        46        64             0.5             0.5             0.5               0         0
         1        46        65             0.5             0.5             0.5               0         0
         1        47        47             0.5             0.5             0.5               0         0
         1        47        48             0.5             0.5             0.5               0         0
         1        47        49             0.5             0.5             0.5               0         0
         1        47        50             0.5             0.5             0.5               0         0
         1        47        51             0.5             0.5             0.5               0         0
         1        47        52             0.5             0.5             0.5               0         0
         1        47        53             0.5             0.5             0.5               0         0
         1        47        54             0.5             0.5             0.5               0         0
         1        47        55             0.5             0.5             0.5               0         0
         1        47        56             0.5             0.5             0.5               0         0
         1        47        57             0.5             0.5             0.5               0         0
         1        47        58             0.5             0.5             0.5               0         0
         1        47        59             0.5             0.5             0.5               0         0
         1        47        60             0.5             0.5             0.5               0         0
         1        47        61             0.5             0.5             0.5               0         0
         1        47        62             0.5             0.5             0.5               0         0
         1        47        63             0.5             0.5             0.5               0         0
         1        47        64             0.5             0.5             0.5               0         0
         1        48        47             0.5             0.5             0.5               0         0
         1        48        48             0.5             0.5             0.5               0         0
         1        48        49             0.5             0.5             0.5               0         0
         1        48        50             0.5             0.5             0.5               0         0
         1        48        51             0.5             0.5             0.5               0         0
         1        48        52             0.5             0.5             0.5               0         0
         1        48        53             0.5             0.5             0.5               0         0
         1        48        54             0.5             0.5             0.5               0         0
         1        48        55             0.5             0.5             0.5               0         0
         1        48        56             0.5             0.5             0.5               0         0
         1        48        57             0.5             0.5             0.5               0         0
         1        48        58             0.5             0.5             0.5               0         0
         1        48        59             0.5             0.5             0.5               0         0
         1        48        60             0.5             0.5             0.5               0         0
         1        48        61             0.5             0.5             0.5               0         0
         1        48        62             0.5             0.5             0.5               0         0
         1        48        63             0.5             0.5             0.5               0         0
         1        48        64             0.5             0.5             0.5               0         0
         1        49        47             0.5             0.5             0.5               0         0
         1        49        48             0.5             0.5             0.5               0         0
         1        49        49             0.5             0.5             0.5               0         0
         1        49        50             0.5             0.5             0.5               0         0
         1        49        51             0.5             0.5             0.5               0         0
         1        49        52             0.5             0.5             0.5               0         0
         1        49        53             0.5             0.5             0.5               0         0
         1        49        54             0.5             0.5             0.5               0         0
         1        49        55             0.5             0.5             0.5               0         0
         1        49        56             0.5             0.5             0.5               0         0
         1        49        57             0.5             0.5             0.5               0         0
         1        49        58             0.5             0.5             0.5               0         0
         1        49        59             0.5             0.5             0.5               0         0
         1        49        60             0.5             0.5             0.5               0         0
         1        49        61             0.5             0.5             0.5               0         0
         1        49        62             0.5             0.5             0.5               0         0
         1        49        63             0.5             0.5             0.5               0         0