# File generated by Flopy version 3.9.2 on 02/23/2025 at 22:11:10.
BEGIN options
  READASARRAYS
  auxiliary  iface  iflowface
  SAVE_FLOWS
END options

BEGIN period  1
  recharge
    CONSTANT       0.00500000
  iface
    CONSTANT       6.00000000
  iflowface
    CONSTANT      -1.00000000
END period  1

