# File generated by Flopy version 3.9.2 on 03/19/2025 at 13:28:14.
BEGIN options
  SAVE_FLOWS
END options

BEGIN dimensions
  MAXBOUND  18080
END dimensions

BEGIN period  1
  20 104 133 1.60527000E+03
  32 110 131 1.60526000E+03
  20 100 135 1.60526000E+03
  12 80 143 1.60526000E+03
  3 104 133 1.60526000E+03
  7 108 132 1.60526000E+03
  15 110 131 1.60525000E+03
  3 100 135 1.60525000E+03
  2 118 128 1.60525000E+03
  27 74 145 1.60525000E+03
  14 77 144 1.60525000E+03
  2 72 146 1.60525000E+03
  39 99 135 1.60524000E+03
  31 80 143 1.60524000E+03
  39 95 137 1.60524000E+03
  30 119 127 1.60524000E+03
  22 99 135 1.60524000E+03
  34 105 133 1.60523000E+03
  40 122 126 1.60523000E+03
  26 85 141 1.60523000E+03
  10 89 139 1.60523000E+03
  22 95 137 1.60523000E+03
  21 113 130 1.60522000E+03
  40 118 128 1.60522000E+03
  13 119 127 1.60522000E+03
  5 99 135 1.60522000E+03
  9 103 134 1.60522000E+03
  17 105 133 1.60521000E+03
  1 83 142 1.60521000E+03
  4 113 130 1.60521000E+03
  33 77 144 1.60521000E+03
  33 73 146 1.60521000E+03
  16 77 144 1.60520000E+03
  28 83 142 1.60520000E+03
  29 89 139 1.60520000E+03
  7 97 136 1.60520000E+03
  24 99 135 1.60520000E+03
  28 103 134 1.60520000E+03
  20 109 131 1.60519000E+03
  12 89 139 1.60519000E+03
  24 95 137 1.60519000E+03
  11 103 134 1.60519000E+03
  2 123 126 1.60519000E+03
  35 72 146 1.60518000E+03
  29 123 126 1.60518000E+03
  14 86 140 1.60518000E+03
  2 81 142 1.60518000E+03
  35 92 138 1.60518000E+03
  39 78 144 1.60517000E+03
  37 101 134 1.60517000E+03
  14 106 132 1.60517000E+03
  18 92 138 1.60517000E+03
  26 94 137 1.60517000E+03
  30 98 136 1.60516000E+03
  9 116 128 1.60516000E+03
  22 78 144 1.60516000E+03
  28 121 126 1.60516000E+03
  20 101 134 1.60516000E+03
  32 107 132 1.60515000E+03
  9 112 130 1.60515000E+03
  1 92 138 1.60515000E+03
  13 98 136 1.60515000E+03
  5 78 144 1.60515000E+03
  11 121 126 1.60515000E+03
  33 86 140 1.60514000E+03
  37 72 146 1.60514000E+03
  21 76 144 1.60514000E+03
  16 86 140 1.60514000E+03
  20 72 146 1.60514000E+03
  4 76 144 1.60513000E+03
  7 80 143 1.60513000E+03
  39 96 136 1.60513000E+03
  20 92 138 1.60513000E+03
  32 98 136 1.60513000E+03
  24 78 144 1.60512000E+03
  8 82 142 1.60512000E+03
  20 88 140 1.60512000E+03
  30 116 128 1.60512000E+03
  11 112 130 1.60512000E+03
  23 118 128 1.60511000E+03
  3 92 138 1.60511000E+03
  15 98 136 1.60511000E+03
  3 88 140 1.60511000E+03
  35 81 142 1.60511000E+03
  23 76 144 1.60511000E+03
  10 123 126 1.60510000E+03
  18 81 142 1.60510000E+03
  6 76 144 1.60510000E+03
  39 87 140 1.60510000E+03
  39 83 142 1.60510000E+03
  18 101 134 1.60509000E+03
  30 107 132 1.60509000E+03
  14 85 141 1.60509000E+03
  22 87 140 1.60509000E+03
  34 93 138 1.60509000E+03
  40 110 131 1.60508000E+03
  26 73 146 1.60508000E+03
  32 116 128 1.60508000E+03
  10 77 144 1.60508000E+03
  9 121 126 1.60508000E+03
  1 101 134 1.60507000E+03
  13 107 132 1.60507000E+03
  5 87 140 1.60507000E+03
  17 93 138 1.60507000E+03
  36 122 126 1.60507000E+03
  19 122 126 1.60506000E+03
  12 123 126 1.60506000E+03
  7 85 141 1.60506000E+03
  31 86 140 1.60506000E+03
  24 87 140 1.60506000E+03
  12 77 144 1.60506000E+03
  24 83 142 1.60505000E+03
  3 101 134 1.60505000E+03
  26 111 130 1.60505000E+03
  38 117 128 1.60505000E+03
  14 74 145 1.60505000E+03
  37 89 139 1.60504000E+03
  22 96 136 1.60504000E+03
  40 119 127 1.60504000E+03
  18 80 143 1.60504000E+03
  26 82 142 1.60504000E+03
  10 86 140 1.60503000E+03
  32 99 135 1.60503000E+03
  9 104 133 1.60503000E+03
  28 109 131 1.60503000E+03
  20 89 139 1.60503000E+03
  13 90 139 1.60502000E+03
  32 95 137 1.60502000E+03
  5 96 136 1.60502000E+03
  9 100 135 1.60502000E+03
  1 80 143 1.60502000E+03
  23 119 127 1.60501000E+03
  11 109 131 1.60501000E+03
  33 74 145 1.60501000E+03
  16 74 145 1.60501000E+03
  39 84 141 1.60501000E+03
  20 80 143 1.60501000E+03
  12 86 140 1.60500000E+03
  11 100 135 1.60500000E+03
  3 80 143 1.60500000E+03
  29 120 127 1.60500000E+03
  12 120 127 1.60500000E+03
  39 75 145 1.60499000E+03
  18 89 139 1.60499000E+03
  30 95 137 1.60499000E+03
  22 75 145 1.60499000E+03
  40 98 136 1.60499000E+03
  32 104 133 1.60498000E+03
  24 84 141 1.60498000E+03
  28 88 140 1.60498000E+03
  1 89 139 1.60498000E+03
  36 90 139 1.60498000E+03
  7 106 132 1.60497000E+03
  13 95 137 1.60497000E+03
  5 75 145 1.60497000E+03
  11 92 138 1.60497000E+03
  23 98 136 1.60497000E+03
  11 88 140 1.60497000E+03
  2 112 130 1.60496000E+03
  36 110 131 1.60496000E+03
  35 123 126 1.60496000E+03
  31 120 127 1.60496000E+03
  19 110 131 1.60496000E+03
  18 123 126 1.60495000E+03
  6 118 128 1.60495000E+03
  31 74 145 1.60495000E+03
  24 75 145 1.60495000E+03
  30 87 140 1.60495000E+03
  21 111 130 1.60494000E+03
  3 89 139 1.60494000E+03
  30 83 142 1.60494000E+03
  9 101 134 1.60494000E+03
  21 107 132 1.60494000E+03
  38 109 131 1.60493000E+03
  34 119 127 1.60493000E+03
  26 99 135 1.60493000E+03
  38 105 133 1.60493000E+03
  25 113 130 1.60493000E+03
  17 119 127 1.60492000E+03
  10 120 127 1.60492000E+03
  20 123 126 1.60492000E+03
  8 113 130 1.60492000E+03
  33 91 138 1.60492000E+03
  37 77 144 1.60492000E+03
  30 78 144 1.60491000E+03
  22 84 141 1.60491000E+03
  28 101 134 1.60491000E+03
  40 107 132 1.60491000E+03
  32 87 140 1.60491000E+03
  10 74 145 1.60490000E+03
  16 91 138 1.60490000E+03
  9 92 138 1.60490000E+03
  28 97 136 1.60490000E+03
  20 77 144 1.60490000E+03
  13 78 144 1.60489000E+03
  32 83 142 1.60489000E+03
  5 84 141 1.60489000E+03
  9 88 140 1.60489000E+03
  11 101 134 1.60489000E+03
  23 107 132 1.60488000E+03
  7 111 130 1.60488000E+03
  11 97 136 1.60488000E+03
  2 121 126 1.60488000E+03
  36 119 127 1.60488000E+03
  39 118 128 1.60487000E+03
  27 113 130 1.60487000E+03
  19 119 127 1.60487000E+03
  6 123 126 1.60487000E+03
  10 108 132 1.60487000E+03
  35 86 140 1.60487000E+03
  39 72 146 1.60486000E+03
  30 96 136 1.60486000E+03
  18 86 140 1.60486000E+03
  21 116 128 1.60486000E+03
  9 80 143 1.60486000E+03
  38 114 129 1.60485000E+03
  36 111 130 1.60485000E+03
  13 116 128 1.60485000E+03
  25 122 126 1.60485000E+03
  17 102 134 1.60485000E+03
  29 108 132 1.60484000E+03
  8 122 126 1.60484000E+03
  12 108 132 1.60484000E+03
  37 86 140 1.60484000E+03
  32 96 136 1.60484000E+03
  28 80 143 1.60483000E+03
  36 82 142 1.60483000E+03
  20 86 140 1.60483000E+03
  24 72 146 1.60483000E+03
  1 77 144 1.60483000E+03
  36 78 144 1.60483000E+03
  7 94 137 1.60482000E+03
  13 83 142 1.60482000E+03
  15 96 136 1.60482000E+03
  11 80 143 1.60482000E+03
  3 86 140 1.60482000E+03
  7 90 139 1.60481000E+03
  24 92 138 1.60481000E+03
  2 100 135 1.60481000E+03
  36 98 136 1.60481000E+03
  27 122 126 1.60481000E+03
  31 108 132 1.60480000E+03
  15 112 130 1.60480000E+03
  10 121 126 1.60480000E+03
  19 98 136 1.60480000E+03
  10 117 128 1.60480000E+03
  39 81 142 1.60479000E+03
  27 76 144 1.60479000E+03
  34 91 138 1.60479000E+03
  30 75 145 1.60479000E+03
  22 81 142 1.60479000E+03
  21 99 135 1.60478000E+03
  3 77 144 1.60478000E+03
  9 89 139 1.60478000E+03
  21 95 137 1.60478000E+03
  34 111 130 1.60478000E+03
  38 97 136 1.60478000E+03
  22 101 134 1.60477000E+03
  34 107 132 1.60477000E+03
  26 87 140 1.60477000E+03
  38 93 138 1.60477000E+03
  17 111 130 1.60477000E+03
  29 117 128 1.60476000E+03
  13 121 126 1.60476000E+03
  5 101 134 1.60476000E+03
  17 107 132 1.60476000E+03
  27 110 131 1.60476000E+03
  4 115 129 1.60475000E+03
  12 117 128 1.60475000E+03
  33 79 143 1.60475000E+03
  22 72 146 1.60475000E+03
  28 89 139 1.60475000E+03
  40 95 137 1.60474000E+03
  32 75 145 1.60474000E+03
  16 79 143 1.60474000E+03
  24 81 142 1.60474000E+03
  28 85 141 1.60474000E+03
  1 86 140 1.60474000E+03
  5 72 146 1.60473000E+03
  11 89 139 1.60473000E+03
  23 95 137 1.60473000E+03
  7 73 146 1.60473000E+03
  15 75 145 1.60473000E+03
  11 85 141 1.60472000E+03
  2 109 131 1.60472000E+03
  6 95 137 1.60472000E+03
  35 120 127 1.60472000E+03
  19 111 130 1.60472000E+03
  19 107 132 1.60471000E+03
  33 113 130 1.60471000E+03
  18 120 127 1.60471000E+03
  6 115 129 1.60471000E+03
  1 120 127 1.60471000E+03
  35 74 145 1.60470000E+03
  30 84 141 1.60470000E+03
  18 74 145 1.60470000E+03
  21 104 133 1.60470000E+03
  13 84 141 1.60470000E+03
  25 90 139 1.60469000E+03
  38 106 132 1.60469000E+03
  1 74 145 1.60469000E+03
  26 96 136 1.60469000E+03
  38 102 134 1.60469000E+03
  36 99 135 1.60469000E+03
  13 104 133 1.60468000E+03
  25 110 131 1.60468000E+03
  17 90 139 1.60468000E+03
  27 119 127 1.60468000E+03
  8 110 131 1.60468000E+03
  37 74 145 1.60467000E+03
  32 84 141 1.60467000E+03
  20 74 145 1.60467000E+03
  7 82 142 1.60467000E+03
  15 84 141 1.60467000E+03
  3 74 145 1.60466000E+03
  7 78 144 1.60466000E+03
  2 88 140 1.60466000E+03
  33 122 126 1.60466000E+03
  10 109 131 1.60466000E+03
  14 113 130 1.60465000E+03
  10 105 133 1.60465000E+03
  34 79 143 1.60465000E+03
  21 87 140 1.60465000E+03
  25 73 146 1.60465000E+03
  9 77 144 1.60464000E+03
  21 83 142 1.60464000E+03
  4 87 140 1.60464000E+03
  38 85 141 1.60464000E+03
  26 75 145 1.60464000E+03
  4 83 142 1.60464000E+03
  17 99 135 1.60463000E+03
  36 104 133 1.60463000E+03
  29 105 133 1.60463000E+03
  5 89 139 1.60463000E+03
  17 95 137 1.60463000E+03
  16 113 130 1.60462000E+03
  31 114 129 1.60462000E+03
  8 119 127 1.60462000E+03
  27 98 136 1.60462000E+03
  4 103 134 1.60462000E+03
  12 105 133 1.60461000E+03
  6 112 130 1.60461000E+03
  28 77 144 1.60461000E+03
  40 83 142 1.60461000E+03
  28 73 146 1.60461000E+03
  7 91 138 1.60460000E+03
  11 77 144 1.60460000E+03
  23 83 142 1.60460000E+03
  2 97 136 1.60460000E+03
  6 83 142 1.60460000E+03
  35 108 132 1.60460000E+03
  19 99 135 1.60459000E+03
  25 111 130 1.60459000E+03
  37 117 128 1.60459000E+03
  19 95 137 1.60459000E+03
  14 122 126 1.60459000E+03
  25 107 132 1.60458000E+03
  18 108 132 1.60458000E+03
  10 88 140 1.60458000E+03
  1 108 132 1.60458000E+03
  30 72 146 1.60458000E+03
  14 76 144 1.60457000E+03
  24 123 126 1.60457000E+03
  9 86 140 1.60457000E+03
  13 72 146 1.60457000E+03
  38 94 137 1.60457000E+03
  34 78 144 1.60456000E+03
  40 121 126 1.60456000E+03
  26 84 141 1.60456000E+03
  32 101 134 1.60456000E+03
  36 87 140 1.60456000E+03
  13 92 138 1.60455000E+03
  4 116 128 1.60455000E+03
  17 78 144 1.60455000E+03
  23 121 126 1.60455000E+03
  15 101 134 1.60455000E+03
  27 107 132 1.60455000E+03
  19 87 140 1.60454000E+03
  31 93 138 1.60454000E+03
  8 98 136 1.60454000E+03
  6 121 126 1.60454000E+03
  28 86 140 1.60454000E+03
  32 72 146 1.60453000E+03
  16 76 144 1.60453000E+03
  26 118 128 1.60453000E+03
  11 86 140 1.60453000E+03
  15 72 146 1.60453000E+03
  2 80 143 1.60452000E+03
  34 96 136 1.60452000E+03
  38 82 142 1.60452000E+03
  19 78 144 1.60452000E+03
  33 110 131 1.60452000E+03
  25 116 128 1.60451000E+03
  17 96 136 1.60451000E+03
  10 97 136 1.60451000E+03
  29 102 134 1.60451000E+03
  28 120 127 1.60451000E+03
  4 104 133 1.60450000E+03
  10 93 138 1.60450000E+03
  16 110 131 1.60450000E+03
  30 81 142 1.60450000E+03
  40 84 141 1.60450000E+03
  5 123 126 1.60450000E+03
  28 74 145 1.60449000E+03
  21 75 145 1.60449000E+03
  40 80 143 1.60449000E+03
  13 81 142 1.60449000E+03
  4 75 145 1.60449000E+03
  38 73 146 1.60448000E+03
  36 96 136 1.60448000E+03
  17 87 140 1.60448000E+03
  29 93 138 1.60448000E+03
  31 106 132 1.60448000E+03
  27 116 128 1.60447000E+03
  5 77 144 1.60447000E+03
  35 105 133 1.60447000E+03
  19 96 136 1.60447000E+03
  23 100 135 1.60447000E+03
  31 102 134 1.60446000E+03
  8 107 132 1.60446000E+03
  12 93 138 1.60446000E+03
  14 119 127 1.60446000E+03
  6 100 135 1.60446000E+03
  31 122 126 1.60446000E+03
  7 79 143 1.60445000E+03
  2 85 141 1.60445000E+03
  38 91 138 1.60445000E+03
  33 119 127 1.60445000E+03
  25 99 135 1.60445000E+03
  37 105 133 1.60444000E+03
  14 110 131 1.60444000E+03
  25 95 137 1.60444000E+03
  16 119 127 1.60444000E+03
  4 109 131 1.60444000E+03
  8 95 137 1.60443000E+03
  7 113 130 1.60443000E+03
  9 74 145 1.60443000E+03
  26 76 144 1.60443000E+03
  32 89 139 1.60443000E+03
  36 75 145 1.60442000E+03
  27 99 135 1.60442000E+03
  35 114 129 1.60442000E+03
  23 109 131 1.60442000E+03
  31 85 141 1.60442000E+03
  15 89 139 1.60441000E+03
  8 90 139 1.60441000E+03
  27 95 137 1.60441000E+03
  19 75 145 1.60441000E+03
  6 109 131 1.60441000E+03
  14 98 136 1.60441000E+03
  39 120 127 1.60440000E+03
  10 114 129 1.60440000E+03
  22 120 127 1.60440000E+03
  11 74 145 1.60440000E+03
  5 120 127 1.60440000E+03
  34 84 141 1.60439000E+03
  37 114 129 1.60439000E+03
  21 92 138 1.60439000E+03
  29 94 137 1.60439000E+03
  33 98 136 1.60439000E+03
  25 78 144 1.60438000E+03
  17 84 141 1.60438000E+03
  10 85 141 1.60438000E+03
  29 90 139 1.60438000E+03
  28 108 132 1.60438000E+03
  20 114 129 1.60437000E+03
  4 92 138 1.60437000E+03
  16 98 136 1.60437000E+03
  7 122 126 1.60437000E+03
  24 120 127 1.60437000E+03
  40 72 146 1.60436000E+03
  7 76 144 1.60436000E+03
  36 84 141 1.60436000E+03
  40 88 140 1.60436000E+03
  17 75 145 1.60436000E+03
  31 94 137 1.60436000E+03
  39 109 131 1.60435000E+03
  27 104 133 1.60435000E+03
  35 93 138 1.60435000E+03
  19 84 141 1.60435000E+03
  14 111 130 1.60435000E+03
  23 88 140 1.60434000E+03
  31 90 139 1.60434000E+03
  2 106 132 1.60434000E+03
  6 92 138 1.60434000E+03
  14 107 132 1.60434000E+03
  2 102 134 1.60433000E+03
  6 88 140 1.60433000E+03
  30 123 126 1.60433000E+03
  26 115 129 1.60433000E+03
  13 123 126 1.60433000E+03
  38 79 143 1.60432000E+03
  21 101 134 1.60432000E+03
  33 107 132 1.60432000E+03
  25 87 140 1.60432000E+03
  37 93 138 1.60432000E+03
  21 97 136 1.60432000E+03
  16 111 130 1.60431000E+03
  29 73 146 1.60431000E+03
  25 83 142 1.60431000E+03
  4 101 134 1.60431000E+03
  16 107 132 1.60431000E+03
  8 87 140 1.60430000E+03
  20 93 138 1.60430000E+03
  8 83 142 1.60430000E+03
  20 113 130 1.60430000E+03
  12 119 127 1.60430000E+03
  15 123 126 1.60429000E+03
  3 113 130 1.60429000E+03
  32 77 144 1.60429000E+03
  35 106 132 1.60429000E+03
  23 101 134 1.60429000E+03
  39 92 138 1.60428000E+03
  27 87 140 1.60428000E+03
  11 91 138 1.60428000E+03
  35 102 134 1.60428000E+03
  23 97 136 1.60428000E+03
  31 73 146 1.60427000E+03
  15 77 144 1.60427000E+03
  8 78 144 1.60427000E+03
  39 88 140 1.60427000E+03
  18 106 132 1.60427000E+03
  27 83 142 1.60427000E+03
  6 101 134 1.60426000E+03
  2 111 130 1.60426000E+03
  18 102 134 1.60426000E+03
  6 97 136 1.60426000E+03
  39 108 132 1.60426000E+03
  34 118 128 1.60425000E+03
  18 122 126 1.60425000E+03
  10 102 134 1.60425000E+03
  22 108 132 1.60425000E+03
  17 118 128 1.60425000E+03
  1 122 126 1.60424000E+03
  5 108 132 1.60424000E+03
  30 86 140 1.60424000E+03
  34 72 146 1.60424000E+03
  33 116 128 1.60424000E+03
  25 96 136 1.60423000E+03
  37 102 134 1.60423000E+03
  21 80 143 1.60423000E+03
  29 82 142 1.60423000E+03
  13 86 140 1.60423000E+03
  17 72 146 1.60423000E+03
  10 73 146 1.60422000E+03
  16 116 128 1.60422000E+03
  8 96 136 1.60422000E+03
  20 102 134 1.60422000E+03
  4 80 143 1.60422000E+03
  7 110 131 1.60421000E+03
  31 111 130 1.60421000E+03
  12 102 134 1.60421000E+03
  24 108 132 1.60421000E+03
  3 122 126 1.60421000E+03
  32 86 140 1.60420000E+03
  36 72 146 1.60420000E+03
  27 96 136 1.60420000E+03
  35 85 141 1.60420000E+03
  23 80 143 1.60420000E+03
  31 82 142 1.60419000E+03
  15 86 140 1.60419000E+03
  27 92 138 1.60419000E+03
  19 72 146 1.60419000E+03
  14 99 135 1.60419000E+03
  31 78 144 1.60418000E+03
  2 94 137 1.60418000E+03
  18 85 141 1.60418000E+03
  6 80 143 1.60418000E+03
  14 95 137 1.60418000E+03
  2 90 139 1.60418000E+03
  9 105 133 1.60417000E+03
  22 121 126 1.60417000E+03
  10 111 130 1.60417000E+03
  22 117 128 1.60417000E+03
  26 103 134 1.60417000E+03
  32 120 127 1.60416000E+03
  5 121 126 1.60416000E+03
  5 117 128 1.60416000E+03
  34 81 142 1.60416000E+03
  33 99 135 1.60416000E+03
  21 89 139 1.60415000E+03
  29 91 138 1.60415000E+03
  33 95 137 1.60415000E+03
  25 75 145 1.60415000E+03
  17 81 142 1.60415000E+03
  16 99 135 1.60414000E+03
  20 85 141 1.60414000E+03
  4 89 139 1.60414000E+03
  12 91 138 1.60414000E+03
  16 95 137 1.60414000E+03
  8 75 145 1.60413000E+03
  12 111 130 1.60413000E+03
  24 117 128 1.60413000E+03
  36 123 126 1.60413000E+03
  12 107 132 1.60413000E+03
  36 81 142 1.60413000E+03
  35 94 137 1.60412000E+03
  23 89 139 1.60412000E+03
  27 75 145 1.60412000E+03
  11 79 143 1.60412000E+03
  35 90 139 1.60412000E+03
  19 81 142 1.60411000E+03
  23 85 141 1.60411000E+03
  18 94 137 1.60411000E+03
  6 89 139 1.60411000E+03
  14 78 144 1.60411000E+03
  2 73 146 1.60410000E+03
  6 85 141 1.60410000E+03
  30 120 127 1.60410000E+03
  26 112 130 1.60410000E+03
  10 90 139 1.60410000E+03
  28 113 130 1.60409000E+03
  20 119 127 1.60409000E+03
  13 120 127 1.60409000E+03
  24 105 133 1.60409000E+03
  1 110 131 1.60409000E+03
  11 113 130 1.60409000E+03
  3 119 127 1.60408000E+03
  30 74 145 1.60408000E+03
  38 76 144 1.60408000E+03
  33 104 133 1.60408000E+03
  25 84 141 1.60408000E+03
  37 90 139 1.60407000E+03
  13 74 145 1.60407000E+03
  16 104 133 1.60407000E+03
  8 84 141 1.60407000E+03
  20 90 139 1.60407000E+03
  7 98 136 1.60406000E+03
  31 99 135 1.60406000E+03
  39 114 129 1.60406000E+03
  12 90 139 1.60406000E+03
  30 108 132 1.60406000E+03
  22 114 129 1.60405000E+03
  3 110 131 1.60405000E+03
  9 122 126 1.60405000E+03
  27 84 141 1.60405000E+03
  35 73 146 1.60405000E+03
  33 96 136 1.60404000E+03
  15 74 145 1.60404000E+03
  14 87 140 1.60404000E+03
  2 82 142 1.60404000E+03
  33 92 138 1.60404000E+03
  18 73 146 1.60404000E+03
  10 79 143 1.60403000E+03
  14 83 142 1.60403000E+03
  2 78 144 1.60403000E+03
  9 93 138 1.60403000E+03
  22 109 131 1.60403000E+03
  26 95 137 1.60402000E+03
  10 99 135 1.60402000E+03
  22 105 133 1.60402000E+03
  28 122 126 1.60402000E+03
  32 108 132 1.60402000E+03
  5 109 131 1.60401000E+03
  9 113 130 1.60401000E+03
  24 114 129 1.60401000E+03
  1 119 127 1.60401000E+03
  5 105 133 1.60401000E+03
  11 122 126 1.60400000E+03
  40 86 140 1.60400000E+03
  33 87 140 1.60400000E+03
  37 73 146 1.60400000E+03
  21 77 144 1.60400000E+03
  29 79 143 1.60399000E+03
  33 83 142 1.60399000E+03
  23 86 140 1.60399000E+03
  16 87 140 1.60399000E+03
  4 77 144 1.60399000E+03
  12 79 143 1.60399000E+03
  16 83 142 1.60398000E+03
  35 111 130 1.60398000E+03
  39 97 136 1.60398000E+03
  31 104 133 1.60398000E+03
  18 111 130 1.60398000E+03
  30 117 128 1.60397000E+03
  35 82 142 1.60397000E+03
  14 96 136 1.60397000E+03
  33 75 145 1.60397000E+03
  18 82 142 1.60397000E+03
  6 77 144 1.60396000E+03
  37 107 132 1.60396000E+03
  20 111 130 1.60396000E+03
  26 100 135 1.60396000E+03
  32 117 128 1.60396000E+03
  10 78 144 1.60395000E+03
  24 97 136 1.60395000E+03
  1 102 134 1.60395000E+03
  36 103 134 1.60395000E+03
  20 107 132 1.60395000E+03
  13 108 132 1.60395000E+03
  5 88 140 1.60394000E+03
  24 93 138 1.60394000E+03
  1 98 136 1.60394000E+03
  3 111 130 1.60394000E+03
  7 115 129 1.60394000E+03
  15 117 128 1.60393000E+03
  27 123 126 1.60393000E+03
  3 107 132 1.60393000E+03
  25 72 146 1.60393000E+03
  37 78 144 1.60393000E+03
  19 123 126 1.60392000E+03
  27 81 142 1.60392000E+03
  4 86 140 1.60392000E+03
  8 72 146 1.60392000E+03
  39 106 132 1.60392000E+03
  27 101 134 1.60391000E+03
  31 87 140 1.60391000E+03
  39 102 134 1.60391000E+03
  34 116 128 1.60391000E+03
  12 78 144 1.60391000E+03
  22 106 132 1.60390000E+03
  34 112 130 1.60390000E+03
  21 120 127 1.60390000E+03
  9 110 131 1.60390000E+03
  38 118 128 1.60390000E+03
  27 72 146 1.60390000E+03
  33 84 141 1.60389000E+03
  6 86 140 1.60389000E+03
  14 75 145 1.60389000E+03
  37 116 128 1.60389000E+03
  29 96 136 1.60389000E+03
  22 97 136 1.60388000E+03
  40 120 127 1.60388000E+03
  26 83 142 1.60388000E+03
  10 87 140 1.60388000E+03
  24 106 132 1.60388000E+03
  28 110 131 1.60387000E+03
  1 111 130 1.60387000E+03
  36 112 130 1.60387000E+03
  20 116 128 1.60387000E+03
  12 96 136 1.60387000E+03
  5 97 136 1.60386000E+03
  24 102 134 1.60386000E+03
  23 120 127 1.60386000E+03
  5 93 138 1.60386000E+03
  11 110 131 1.60386000E+03
  3 90 139 1.60385000E+03
  6 120 127 1.60385000E+03
  40 74 145 1.60385000E+03
  25 81 142 1.60385000E+03
  23 74 145 1.60385000E+03
  16 75 145 1.60385000E+03
  8 81 142 1.60384000E+03
  6 74 145 1.60384000E+03
  35 99 135 1.60384000E+03
  31 96 136 1.60384000E+03
  39 85 141 1.60384000E+03
  34 121 126 1.60383000E+03
  18 99 135 1.60383000E+03
  30 105 133 1.60383000E+03
  22 85 141 1.60383000E+03
  13 109 131 1.60383000E+03
  25 115 129 1.60382000E+03
  9 119 127 1.60382000E+03
  17 121 126 1.60382000E+03
  1 99 135 1.60382000E+03
  13 105 133 1.60382000E+03
  26 121 126 1.60381000E+03
  37 79 143 1.60381000E+03
  14 84 141 1.60381000E+03
  28 99 135 1.60381000E+03
  37 99 135 1.60381000E+03
  37 95 137 1.60381000E+03
  28 119 127 1.60380000E+03
  20 99 135 1.60380000E+03
  26 88 140 1.60380000E+03
  32 105 133 1.60380000E+03
  16 109 131 1.60380000E+03
  24 85 141 1.60379000E+03
  1 90 139 1.60379000E+03
  20 95 137 1.60379000E+03
  11 119 127 1.60379000E+03
  3 99 135 1.60379000E+03
  7 103 134 1.60378000E+03
  15 105 133 1.60378000E+03
  3 95 137 1.60378000E+03
  2 113 130 1.60378000E+03
  4 74 145 1.60378000E+03
  39 94 137 1.60377000E+03
  27 89 139 1.60377000E+03
  31 75 145 1.60377000E+03
  34 104 133 1.60377000E+03
  30 114 129 1.60377000E+03
  22 94 137 1.60376000E+03
  34 100 135 1.60376000E+03
  21 108 132 1.60376000E+03
  13 114 129 1.60376000E+03
  9 98 136 1.60376000E+03
  4 108 132 1.60376000E+03
  5 114 129 1.60375000E+03
  17 120 127 1.60375000E+03
  33 72 146 1.60375000E+03
  16 72 146 1.60375000E+03
  28 78 144 1.60375000E+03
  29 84 141 1.60374000E+03
  7 92 138 1.60374000E+03
  40 108 132 1.60374000E+03
  32 114 129 1.60374000E+03
  16 92 138 1.60374000E+03
  24 94 137 1.60373000E+03
  28 98 136 1.60373000E+03
  36 100 135 1.60373000E+03
  20 78 144 1.60373000E+03
  12 84 141 1.60373000E+03
  5 85 141 1.60372000E+03
  24 90 139 1.60372000E+03
  23 108 132 1.60372000E+03
  7 112 130 1.60372000E+03
  15 114 129 1.60372000E+03
  11 98 136 1.60372000E+03
  19 100 135 1.60371000E+03
  3 78 144 1.60371000E+03
  2 122 126 1.60371000E+03
  6 108 132 1.60371000E+03
  19 120 127 1.60371000E+03
  14 81 142 1.60370000E+03
  2 76 144 1.60370000E+03
  35 87 140 1.60370000E+03
  31 84 141 1.60370000E+03
  39 73 146 1.60370000E+03
  14 101 134 1.60369000E+03
  34 109 131 1.60369000E+03
  18 87 140 1.60369000E+03
  26 89 139 1.60369000E+03
  30 93 138 1.60369000E+03
  38 95 137 1.60368000E+03
  9 111 130 1.60368000E+03
  22 73 146 1.60368000E+03
  28 116 128 1.60368000E+03
  21 117 128 1.60368000E+03
  13 97 136 1.60367000E+03
  25 103 134 1.60367000E+03
  9 107 132 1.60367000E+03
  1 87 140 1.60367000E+03
  13 93 138 1.60367000E+03
  26 109 131 1.60367000E+03
  4 117 128 1.60366000E+03
  38 115 129 1.60366000E+03
  25 123 126 1.60366000E+03
  33 81 142 1.60366000E+03
  14 72 146 1.60366000E+03
  31 118 128 1.60365000E+03
  8 123 126 1.60365000E+03
  16 81 142 1.60365000E+03
  37 87 140 1.60365000E+03
  37 83 142 1.60365000E+03
  16 101 134 1.60364000E+03
  28 107 132 1.60364000E+03
  40 113 130 1.60364000E+03
  20 87 140 1.60364000E+03
  32 93 138 1.60364000E+03
  16 97 136 1.60363000E+03
  11 111 130 1.60363000E+03
  24 73 146 1.60363000E+03
  7 121 126 1.60363000E+03
  20 83 142 1.60363000E+03
  11 107 132 1.60362000E+03
  3 87 140 1.60362000E+03
  15 93 138 1.60362000E+03
  3 83 142 1.60362000E+03
  35 76 144 1.60362000E+03
  10 118 128 1.60362000E+03
  35 96 136 1.60361000E+03
  39 82 142 1.60361000E+03
  30 106 132 1.60361000E+03
  34 92 138 1.60361000E+03
  18 96 136 1.60361000E+03
  30 102 134 1.60360000E+03
  10 76 144 1.60360000E+03
  22 82 142 1.60360000E+03
  34 88 140 1.60360000E+03
  40 105 133 1.60360000E+03
  13 106 132 1.60359000E+03
  1 96 136 1.60359000E+03
  13 102 134 1.60359000E+03
  5 82 142 1.60359000E+03
  17 88 140 1.60359000E+03
  36 117 128 1.60358000E+03
  29 118 128 1.60358000E+03
  5 102 134 1.60358000E+03
  17 108 132 1.60358000E+03
  19 117 128 1.60358000E+03
  12 118 128 1.60358000E+03
  31 123 126 1.60357000E+03
  29 72 146 1.60357000E+03
  20 96 136 1.60357000E+03
  32 102 134 1.60357000E+03
  16 80 143 1.60357000E+03
  24 82 142 1.60356000E+03
  8 86 140 1.60356000E+03
  36 88 140 1.60356000E+03
  12 72 146 1.60356000E+03
  5 73 146 1.60356000E+03
  11 116 128 1.60355000E+03
  3 96 136 1.60355000E+03
  7 100 135 1.60355000E+03
  15 102 134 1.60355000E+03
  19 88 140 1.60355000E+03
  2 110 131 1.60354000E+03
  38 116 128 1.60354000E+03
  38 112 130 1.60354000E+03
  25 120 127 1.60354000E+03
  39 91 138 1.60354000E+03
  35 75 145 1.60353000E+03
  31 72 146 1.60353000E+03
  30 85 141 1.60353000E+03
  14 89 139 1.60353000E+03
  22 91 138 1.60353000E+03
  40 114 129 1.60353000E+03
  18 75 145 1.60352000E+03
  26 77 144 1.60352000E+03
  10 81 142 1.60352000E+03
  9 99 135 1.60352000E+03
  28 104 133 1.60352000E+03
  21 105 133 1.60351000E+03
  13 85 141 1.60351000E+03
  5 91 138 1.60351000E+03
  9 95 137 1.60351000E+03
  1 75 145 1.60351000E+03
  4 105 133 1.60350000E+03
  27 120 127 1.60350000E+03
  14 123 126 1.60350000E+03
  29 81 142 1.60350000E+03
  24 91 138 1.60350000E+03
  20 75 145 1.60349000E+03
  12 81 142 1.60349000E+03
  11 99 135 1.60349000E+03
  11 95 137 1.60349000E+03
  3 75 145 1.60349000E+03
  38 121 126 1.60348000E+03
  17 109 131 1.60348000E+03
  29 115 129 1.60348000E+03
  30 94 137 1.60348000E+03
  18 84 141 1.60348000E+03
  26 86 140 1.60348000E+03
  30 90 139 1.60347000E+03
  28 87 140 1.60347000E+03
  40 93 138 1.60347000E+03
  13 94 137 1.60347000E+03
  9 78 144 1.60347000E+03
  1 84 141 1.60346000E+03
  7 101 134 1.60346000E+03
  32 119 127 1.60346000E+03
  36 105 133 1.60346000E+03
  35 118 128 1.60346000E+03
  23 113 130 1.60345000E+03
  31 115 129 1.60345000E+03
  15 119 127 1.60345000E+03
  8 120 127 1.60345000E+03
  19 105 133 1.60345000E+03
  6 113 130 1.60344000E+03
  20 84 141 1.60344000E+03
  32 90 139 1.60344000E+03
  8 74 145 1.60344000E+03
  11 104 133 1.60344000E+03
  3 84 141 1.60344000E+03
  15 90 139 1.60343000E+03
  2 98 136 1.60343000E+03
  38 104 133 1.60343000E+03
  34 114 129 1.60343000E+03
  38 100 135 1.60343000E+03
  37 118 128 1.60342000E+03
  21 122 126 1.60342000E+03
  25 108 132 1.60342000E+03
  17 114 129 1.60342000E+03
  10 115 129 1.60342000E+03
  20 118 128 1.60341000E+03
  4 122 126 1.60341000E+03
  8 108 132 1.60341000E+03
  39 79 143 1.60341000E+03
  30 73 146 1.60341000E+03
  22 79 143 1.60340000E+03
  28 96 136 1.60340000E+03
  40 102 134 1.60340000E+03
  32 82 142 1.60340000E+03
  9 87 140 1.60340000E+03
  28 92 138 1.60339000E+03
  21 93 138 1.60339000E+03
  13 73 146 1.60339000E+03
  32 78 144 1.60339000E+03
  5 79 143 1.60339000E+03
  9 83 142 1.60339000E+03
  11 96 136 1.60338000E+03
  23 102 134 1.60338000E+03
  4 93 138 1.60338000E+03
  2 116 128 1.60338000E+03
  36 114 129 1.60338000E+03
  23 122 126 1.60337000E+03
  39 113 130 1.60337000E+03
  27 108 132 1.60337000E+03
  19 114 129 1.60337000E+03
  6 122 126 1.60337000E+03
  24 79 143 1.60336000E+03
  30 91 138 1.60336000E+03
  11 87 140 1.60336000E+03
  11 83 142 1.60336000E+03
  30 111 130 1.60336000E+03
  34 97 136 1.60335000E+03
  38 83 142 1.60335000E+03
  13 111 130 1.60335000E+03
  25 117 128 1.60335000E+03
  37 123 126 1.60335000E+03
  17 97 136 1.60334000E+03
  29 103 134 1.60334000E+03
  8 117 128 1.60334000E+03
  37 81 142 1.60334000E+03
  30 82 142 1.60334000E+03
  40 111 130 1.60334000E+03
  18 72 146 1.60333000E+03
  32 91 138 1.60333000E+03
  9 96 136 1.60333000E+03
  28 75 145 1.60333000E+03
  1 76 144 1.60333000E+03
  20 81 142 1.60332000E+03
  23 111 130 1.60332000E+03
  1 72 146 1.60332000E+03
  7 89 139 1.60332000E+03
  29 80 143 1.60332000E+03
  11 75 145 1.60331000E+03
  2 95 137 1.60331000E+03
  36 93 138 1.60331000E+03
  15 111 130 1.60331000E+03
  39 122 126 1.60331000E+03
  27 117 128 1.60330000E+03
  19 97 136 1.60330000E+03
  31 103 134 1.60330000E+03
  15 107 132 1.60330000E+03
  19 93 138 1.60330000E+03
  14 120 127 1.60330000E+03
  2 115 129 1.60329000E+03
  39 76 144 1.60329000E+03
  3 72 146 1.60329000E+03
  15 78 144 1.60329000E+03
  9 84 141 1.60329000E+03
  21 90 139 1.60328000E+03
  34 106 132 1.60328000E+03
  38 92 138 1.60328000E+03
  34 102 134 1.60328000E+03
  29 116 128 1.60328000E+03
  33 120 127 1.60327000E+03
  38 88 140 1.60327000E+03
  17 106 132 1.60327000E+03
  21 110 131 1.60327000E+03
  29 112 130 1.60327000E+03
  10 103 134 1.60326000E+03
  12 116 128 1.60326000E+03
  16 120 127 1.60326000E+03
  4 110 131 1.60326000E+03
  12 112 130 1.60326000E+03
  28 84 141 1.60325000E+03
  40 90 139 1.60325000E+03
  9 75 145 1.60325000E+03
  24 76 144 1.60325000E+03
  1 81 142 1.60325000E+03
  11 84 141 1.60325000E+03
  23 90 139 1.60324000E+03
  36 106 132 1.60324000E+03
  24 96 136 1.60324000E+03
  2 104 133 1.60324000E+03
  36 102 134 1.60324000E+03
  35 115 129 1.60323000E+03
  19 106 132 1.60323000E+03
  23 110 131 1.60323000E+03
  31 112 130 1.60323000E+03
  15 116 128 1.60323000E+03
  19 102 134 1.60322000E+03
  18 115 129 1.60322000E+03
  6 110 131 1.60322000E+03
  30 79 143 1.60322000E+03
  3 81 142 1.60322000E+03
  30 99 135 1.60321000E+03
  38 101 134 1.60321000E+03
  34 85 141 1.60321000E+03
  26 91 138 1.60321000E+03
  37 115 129 1.60321000E+03
  21 119 127 1.60321000E+03
  29 121 126 1.60320000E+03
  13 99 135 1.60320000E+03
  25 105 133 1.60320000E+03
  17 85 141 1.60320000E+03
  8 109 131 1.60320000E+03
  20 115 129 1.60319000E+03
  4 119 127 1.60319000E+03
  12 121 126 1.60319000E+03
  8 105 133 1.60319000E+03
  3 115 129 1.60319000E+03
  22 76 144 1.60318000E+03
  40 99 135 1.60318000E+03
  32 79 143 1.60318000E+03
  23 99 135 1.60318000E+03
  7 77 144 1.60318000E+03
  15 79 143 1.60317000E+03
  2 87 140 1.60317000E+03
  36 85 141 1.60317000E+03
  2 83 142 1.60317000E+03
  15 99 135 1.60317000E+03