# File generated by Flopy version 3.9.2 on 03/19/2025 at 13:28:14.
BEGIN options
  SAVE_FLOWS
  SAVE_SPECIFIC_DISCHARGE
  SAVE_SATURATION
END options

BEGIN griddata
  icelltype
    CONSTANT  2
  k
    CONSTANT      10.00000000
  k33
    CONSTANT       1.00000000
END griddata

