# File generated by Flopy version 3.9.2 on 02/23/2025 at 22:11:10.
BEGIN options
  auxiliary  iface  iflowface
END options

BEGIN dimensions
  MAXBOUND  120
END dimensions

BEGIN period  1
  1 110 77 1.60400000E+03 1.00000000E+05 1.60000000E+03 6 -1
  1 110 77 1.60400000E+03 1.00000000E+05 1.60000000E+03 6 -1
  1 110 77 1.60400000E+03 1.00000000E+05 1.60000000E+03 6 -1
  1 110 77 1.60400000E+03 1.00000000E+05 1.60000000E+03 6 -1
  1 110 77 1.60400000E+03 1.00000000E+05 1.60000000E+03 6 -1
  1 121 95 1.60400000E+03 1.00000000E+05 1.60000000E+03 6 -1
  1 121 95 1.60400000E+03 1.00000000E+05 1.60000000E+03 6 -1
  1 121 95 1.60400000E+03 1.00000000E+05 1.60000000E+03 6 -1
  1 121 95 1.60400000E+03 1.00000000E+05 1.60000000E+03 6 -1
  1 121 95 1.60400000E+03 1.00000000E+05 1.60000000E+03 6 -1
  1 117 88 1.60400000E+03 1.00000000E+05 1.60000000E+03 6 -1
  1 117 88 1.60400000E+03 1.00000000E+05 1.60000000E+03 6 -1
  1 117 88 1.60400000E+03 1.00000000E+05 1.60000000E+03 6 -1
  1 117 88 1.60400000E+03 1.00000000E+05 1.60000000E+03 6 -1
  1 117 88 1.60400000E+03 1.00000000E+05 1.60000000E+03 6 -1
  1 118 89 1.60400000E+03 1.00000000E+05 1.60000000E+03 6 -1
  1 118 89 1.60400000E+03 1.00000000E+05 1.60000000E+03 6 -1
  1 118 89 1.60400000E+03 1.00000000E+05 1.60000000E+03 6 -1
  1 118 89 1.60400000E+03 1.00000000E+05 1.60000000E+03 6 -1
  1 118 89 1.60400000E+03 1.00000000E+05 1.60000000E+03 6 -1
  1 111 77 1.60400000E+03 1.00000000E+05 1.60000000E+03 6 -1
  1 111 77 1.60400000E+03 1.00000000E+05 1.60000000E+03 6 -1
  1 111 77 1.60400000E+03 1.00000000E+05 1.60000000E+03 6 -1
  1 111 77 1.60400000E+03 1.00000000E+05 1.60000000E+03 6 -1
  1 111 77 1.60400000E+03 1.00000000E+05 1.60000000E+03 6 -1
  1 114 82 1.60400000E+03 1.00000000E+05 1.60000000E+03 6 -1
  1 114 82 1.60400000E+03 1.00000000E+05 1.60000000E+03 6 -1
  1 114 82 1.60400000E+03 1.00000000E+05 1.60000000E+03 6 -1
  1 114 82 1.60400000E+03 1.00000000E+05 1.60000000E+03 6 -1
  1 114 82 1.60400000E+03 1.00000000E+05 1.60000000E+03 6 -1
  1 112 78 1.60400000E+03 1.00000000E+05 1.60000000E+03 6 -1
  1 112 78 1.60400000E+03 1.00000000E+05 1.60000000E+03 6 -1
  1 112 78 1.60400000E+03 1.00000000E+05 1.60000000E+03 6 -1
  1 112 78 1.60400000E+03 1.00000000E+05 1.60000000E+03 6 -1
  1 112 78 1.60400000E+03 1.00000000E+05 1.60000000E+03 6 -1
  1 122 97 1.60400000E+03 1.00000000E+05 1.60000000E+03 6 -1
  1 122 97 1.60400000E+03 1.00000000E+05 1.60000000E+03 6 -1
  1 122 97 1.60400000E+03 1.00000000E+05 1.60000000E+03 6 -1
  1 122 97 1.60400000E+03 1.00000000E+05 1.60000000E+03 6 -1
  1 122 97 1.60400000E+03 1.00000000E+05 1.60000000E+03 6 -1
  1 115 83 1.60400000E+03 1.00000000E+05 1.60000000E+03 6 -1
  1 115 83 1.60400000E+03 1.00000000E+05 1.60000000E+03 6 -1
  1 115 83 1.60400000E+03 1.00000000E+05 1.60000000E+03 6 -1
  1 115 83 1.60400000E+03 1.00000000E+05 1.60000000E+03 6 -1
  1 115 83 1.60400000E+03 1.00000000E+05 1.60000000E+03 6 -1
  1 118 90 1.60400000E+03 1.00000000E+05 1.60000000E+03 6 -1
  1 118 90 1.60400000E+03 1.00000000E+05 1.60000000E+03 6 -1
  1 118 90 1.60400000E+03 1.00000000E+05 1.60000000E+03 6 -1
  1 118 90 1.60400000E+03 1.00000000E+05 1.60000000E+03 6 -1
  1 118 90 1.60400000E+03 1.00000000E+05 1.60000000E+03 6 -1
  1 116 86 1.60400000E+03 1.00000000E+05 1.60000000E+03 6 -1
  1 116 86 1.60400000E+03 1.00000000E+05 1.60000000E+03 6 -1
  1 116 86 1.60400000E+03 1.00000000E+05 1.60000000E+03 6 -1
  1 116 86 1.60400000E+03 1.00000000E+05 1.60000000E+03 6 -1
  1 116 86 1.60400000E+03 1.00000000E+05 1.60000000E+03 6 -1
  1 114 81 1.60400000E+03 1.00000000E+05 1.60000000E+03 6 -1
  1 114 81 1.60400000E+03 1.00000000E+05 1.60000000E+03 6 -1
  1 114 81 1.60400000E+03 1.00000000E+05 1.60000000E+03 6 -1
  1 114 81 1.60400000E+03 1.00000000E+05 1.60000000E+03 6 -1
  1 114 81 1.60400000E+03 1.00000000E+05 1.60000000E+03 6 -1
  1 112 79 1.60400000E+03 1.00000000E+05 1.60000000E+03 6 -1
  1 112 79 1.60400000E+03 1.00000000E+05 1.60000000E+03 6 -1
  1 112 79 1.60400000E+03 1.00000000E+05 1.60000000E+03 6 -1
  1 112 79 1.60400000E+03 1.00000000E+05 1.60000000E+03 6 -1
  1 112 79 1.60400000E+03 1.00000000E+05 1.60000000E+03 6 -1
  1 122 96 1.60400000E+03 1.00000000E+05 1.60000000E+03 6 -1
  1 122 96 1.60400000E+03 1.00000000E+05 1.60000000E+03 6 -1
  1 122 96 1.60400000E+03 1.00000000E+05 1.60000000E+03 6 -1
  1 122 96 1.60400000E+03 1.00000000E+05 1.60000000E+03 6 -1
  1 122 96 1.60400000E+03 1.00000000E+05 1.60000000E+03 6 -1
  1 122 98 1.60400000E+03 1.00000000E+05 1.60000000E+03 6 -1
  1 122 98 1.60400000E+03 1.00000000E+05 1.60000000E+03 6 -1
  1 122 98 1.60400000E+03 1.00000000E+05 1.60000000E+03 6 -1
  1 122 98 1.60400000E+03 1.00000000E+05 1.60000000E+03 6 -1
  1 122 98 1.60400000E+03 1.00000000E+05 1.60000000E+03 6 -1
  1 115 84 1.60400000E+03 1.00000000E+05 1.60000000E+03 6 -1
  1 115 84 1.60400000E+03 1.00000000E+05 1.60000000E+03 6 -1
  1 115 84 1.60400000E+03 1.00000000E+05 1.60000000E+03 6 -1
  1 115 84 1.60400000E+03 1.00000000E+05 1.60000000E+03 6 -1
  1 115 84 1.60400000E+03 1.00000000E+05 1.60000000E+03 6 -1
  1 113 80 1.60400000E+03 1.00000000E+05 1.60000000E+03 6 -1
  1 113 80 1.60400000E+03 1.00000000E+05 1.60000000E+03 6 -1
  1 113 80 1.60400000E+03 1.00000000E+05 1.60000000E+03 6 -1
  1 113 80 1.60400000E+03 1.00000000E+05 1.60000000E+03 6 -1
  1 113 80 1.60400000E+03 1.00000000E+05 1.60000000E+03 6 -1
  1 116 85 1.60400000E+03 1.00000000E+05 1.60000000E+03 6 -1
  1 116 85 1.60400000E+03 1.00000000E+05 1.60000000E+03 6 -1
  1 116 85 1.60400000E+03 1.00000000E+05 1.60000000E+03 6 -1
  1 116 85 1.60400000E+03 1.00000000E+05 1.60000000E+03 6 -1
  1 116 85 1.60400000E+03 1.00000000E+05 1.60000000E+03 6 -1
  1 119 92 1.60400000E+03 1.00000000E+05 1.60000000E+03 6 -1
  1 119 92 1.60400000E+03 1.00000000E+05 1.60000000E+03 6 -1
  1 119 92 1.60400000E+03 1.00000000E+05 1.60000000E+03 6 -1
  1 119 92 1.60400000E+03 1.00000000E+05 1.60000000E+03 6 -1
  1 119 92 1.60400000E+03 1.00000000E+05 1.60000000E+03 6 -1
  1 120 93 1.60400000E+03 1.00000000E+05 1.60000000E+03 6 -1
  1 120 93 1.60400000E+03 1.00000000E+05 1.60000000E+03 6 -1
  1 120 93 1.60400000E+03 1.00000000E+05 1.60000000E+03 6 -1
  1 120 93 1.60400000E+03 1.00000000E+05 1.60000000E+03 6 -1
  1 120 93 1.60400000E+03 1.00000000E+05 1.60000000E+03 6 -1
  1 123 98 1.60400000E+03 1.00000000E+05 1.60000000E+03 6 -1
  1 123 98 1.60400000E+03 1.00000000E+05 1.60000000E+03 6 -1
  1 123 98 1.60400000E+03 1.00000000E+05 1.60000000E+03 6 -1
  1 123 98 1.60400000E+03 1.00000000E+05 1.60000000E+03 6 -1
  1 123 98 1.60400000E+03 1.00000000E+05 1.60000000E+03 6 -1
  1 121 94 1.60400000E+03 1.00000000E+05 1.60000000E+03 6 -1
  1 121 94 1.60400000E+03 1.00000000E+05 1.60000000E+03 6 -1
  1 121 94 1.60400000E+03 1.00000000E+05 1.60000000E+03 6 -1
  1 121 94 1.60400000E+03 1.00000000E+05 1.60000000E+03 6 -1
  1 121 94 1.60400000E+03 1.00000000E+05 1.60000000E+03 6 -1
  1 119 91 1.60400000E+03 1.00000000E+05 1.60000000E+03 6 -1
  1 119 91 1.60400000E+03 1.00000000E+05 1.60000000E+03 6 -1
  1 119 91 1.60400000E+03 1.00000000E+05 1.60000000E+03 6 -1
  1 119 91 1.60400000E+03 1.00000000E+05 1.60000000E+03 6 -1
  1 119 91 1.60400000E+03 1.00000000E+05 1.60000000E+03 6 -1
  1 117 87 1.60400000E+03 1.00000000E+05 1.60000000E+03 6 -1
  1 117 87 1.60400000E+03 1.00000000E+05 1.60000000E+03 6 -1
  1 117 87 1.60400000E+03 1.00000000E+05 1.60000000E+03 6 -1
  1 117 87 1.60400000E+03 1.00000000E+05 1.60000000E+03 6 -1
  1 117 87 1.60400000E+03 1.00000000E+05 1.60000000E+03 6 -1
END period  1

