# File generated by Flopy version 3.9.2 on 02/23/2025 at 22:11:10.
BEGIN options
  BUDGET  FILEOUT  gwf_model.cbb
  HEAD  FILEOUT  gwf_model.hds
END options

BEGIN period  1
  SAVE  HEAD  ALL
  SAVE  BUDGET  ALL
  PRINT  HEAD  LAST
END period  1

