# File generated by Flopy version 3.9.2 on 02/23/2025 at 22:11:04.
BEGIN options
  SAVE_FLOWS
END options

BEGIN packages
  DIS6  gwf_model.dis  dis
  IC6  gwf_model.ic  ic
  NPF6  gwf_model.npf  npf
  RCH6  gwf_model.rcha  rcha_0
  WEL6  gwf_model.wel  wel
  RIV6  gwf_model.riv  riv_0
  CHD6  gwf_model.chd  chd
  OC6  gwf_model.oc  oc
END packages

