# File generated by Flopy version 3.9.2 on 03/19/2025 at 14:49:34.
BEGIN options
  SAVE_FLOWS
END options

BEGIN packages
  DIS6  gwf_model.dis  dis
  IC6  gwf_model.ic  ic
  NPF6  gwf_model.npf  npf
  CHD6  gwf_model.chd  chd
  OC6  gwf_model.oc  oc
END packages

