# File generated by Flopy version 3.9.2 on 02/23/2025 at 22:11:10.
BEGIN options
  SAVE_FLOWS
END options

BEGIN dimensions
  MAXBOUND  6000
END dimensions

BEGIN period  1
  22 116 100 1.60527000E+03
  38 83 111 1.60526000E+03
  22 112 102 1.60526000E+03
  39 100 105 1.60526000E+03
  5 116 100 1.60526000E+03
  9 120 99 1.60526000E+03
  5 112 102 1.60525000E+03
  10 94 107 1.60525000E+03
  22 100 105 1.60525000E+03
  32 103 104 1.60525000E+03
  37 81 111 1.60525000E+03
  30 82 111 1.60524000E+03
  5 100 105 1.60524000E+03
  1 76 113 1.60524000E+03
  20 81 111 1.60524000E+03
  13 82 111 1.60524000E+03
  24 112 102 1.60523000E+03
  11 120 99 1.60523000E+03
  39 92 108 1.60523000E+03
  12 94 107 1.60523000E+03
  24 100 105 1.60523000E+03
  27 75 113 1.60522000E+03
  11 104 104 1.60522000E+03
  39 76 113 1.60522000E+03
  38 104 104 1.60522000E+03
  9 84 110 1.60522000E+03
  21 90 108 1.60521000E+03
  2 86 110 1.60521000E+03
  37 114 101 1.60521000E+03
  30 115 101 1.60521000E+03
  38 88 109 1.60521000E+03
  18 97 106 1.60520000E+03
  20 114 101 1.60520000E+03
  13 115 101 1.60520000E+03
  30 103 104 1.60520000E+03
  28 96 107 1.60520000E+03
  1 97 106 1.60519000E+03
  40 102 105 1.60519000E+03
  13 103 104 1.60519000E+03
  23 106 103 1.60519000E+03
  11 96 107 1.60519000E+03
  23 102 105 1.60518000E+03
  28 84 110 1.60518000E+03
  40 90 108 1.60518000E+03
  24 76 113 1.60518000E+03
  1 81 111 1.60518000E+03
  11 84 110 1.60517000E+03
  23 90 108 1.60517000E+03
  39 113 101 1.60517000E+03
  27 108 103 1.60517000E+03
  35 73 114 1.60517000E+03
  2 107 103 1.60516000E+03
  18 73 114 1.60516000E+03
  30 79 112 1.60516000E+03
  3 81 111 1.60516000E+03
  34 85 110 1.60516000E+03
  18 114 101 1.60515000E+03
  16 111 102 1.60515000E+03
  28 117 100 1.60515000E+03
  17 85 110 1.60515000E+03
  29 91 108 1.60515000E+03
  1 114 101 1.60514000E+03
  11 117 100 1.60514000E+03
  37 73 114 1.60514000E+03
  12 91 108 1.60514000E+03
  9 96 107 1.60514000E+03
  21 102 105 1.60513000E+03
  22 76 113 1.60513000E+03
  20 73 114 1.60513000E+03
  32 79 112 1.60513000E+03
  4 102 105 1.60513000E+03
  3 73 114 1.60512000E+03
  15 79 112 1.60512000E+03
  27 85 110 1.60512000E+03
  2 87 109 1.60512000E+03
  36 85 110 1.60512000E+03
  2 83 111 1.60511000E+03
  30 112 102 1.60511000E+03
  35 94 107 1.60511000E+03
  19 85 110 1.60511000E+03
  31 91 108 1.60511000E+03
  3 114 101 1.60510000E+03
  18 94 107 1.60510000E+03
  6 89 109 1.60510000E+03
  30 100 105 1.60510000E+03
  6 77 112 1.60510000E+03
  34 106 103 1.60509000E+03
  21 82 111 1.60509000E+03
  33 88 109 1.60509000E+03
  17 106 103 1.60509000E+03
  10 107 103 1.60509000E+03
  33 116 100 1.60508000E+03
  38 80 112 1.60508000E+03
  32 112 102 1.60508000E+03
  37 94 107 1.60508000E+03
  16 116 100 1.60508000E+03
  9 117 100 1.60507000E+03
  10 91 108 1.60507000E+03
  20 94 107 1.60507000E+03
  32 100 105 1.60507000E+03
  2 120 99 1.60507000E+03
  25 72 114 1.60506000E+03
  36 118 100 1.60506000E+03
  37 78 112 1.60506000E+03
  3 94 107 1.60506000E+03
  7 98 106 1.60506000E+03
  40 82 111 1.60505000E+03
  15 100 105 1.60505000E+03
  8 72 114 1.60505000E+03
  1 73 114 1.60505000E+03
  19 118 100 1.60505000E+03
  36 106 103 1.60504000E+03
  23 82 111 1.60504000E+03
  2 104 104 1.60504000E+03
  36 102 105 1.60504000E+03
  19 106 103 1.60504000E+03
  23 110 102 1.60503000E+03
  19 102 105 1.60503000E+03
  6 110 102 1.60503000E+03
  39 89 109 1.60503000E+03
  19 90 108 1.60503000E+03
  21 115 101 1.60502000E+03
  33 121 99 1.60502000E+03
  10 83 111 1.60502000E+03
  22 89 109 1.60502000E+03
  34 95 107 1.60502000E+03
  39 77 112 1.60501000E+03
  27 72 114 1.60501000E+03
  9 97 106 1.60501000E+03
  21 103 104 1.60501000E+03
  14 75 113 1.60501000E+03
  22 77 112 1.60500000E+03
  26 95 107 1.60500000E+03
  38 101 105 1.60500000E+03
  9 81 111 1.60500000E+03
  25 105 104 1.60500000E+03
  37 111 102 1.60499000E+03
  8 109 102 1.60499000E+03
  26 79 112 1.60499000E+03
  40 115 101 1.60499000E+03
  8 105 104 1.60499000E+03
  13 87 109 1.60498000E+03
  25 93 107 1.60498000E+03
  23 115 101 1.60498000E+03
  7 119 99 1.60498000E+03
  12 83 111 1.60498000E+03
  24 89 109 1.60497000E+03
  8 93 107 1.60497000E+03
  40 99 106 1.60497000E+03
  16 75 113 1.60497000E+03
  23 99 106 1.60497000E+03
  28 81 111 1.60497000E+03
  40 87 109 1.60496000E+03
  11 81 111 1.60496000E+03
  39 110 102 1.60496000E+03
  15 99 106 1.60496000E+03
  27 105 104 1.60496000E+03
  10 104 104 1.60495000E+03
  14 108 103 1.60495000E+03
  22 110 102 1.60495000E+03
  15 87 109 1.60495000E+03
  27 93 107 1.60495000E+03
  30 92 108 1.60494000E+03
  9 114 101 1.60494000E+03
  26 116 100 1.60494000E+03
  30 76 113 1.60494000E+03
  26 100 105 1.60494000E+03
  13 76 113 1.60493000E+03
  29 104 104 1.60493000E+03
  33 108 103 1.60493000E+03
  34 82 111 1.60493000E+03
  12 104 104 1.60493000E+03
  16 108 103 1.60492000E+03
  24 110 102 1.60492000E+03
  28 114 101 1.60492000E+03
  5 76 113 1.60492000E+03
  17 82 111 1.60492000E+03
  29 88 109 1.60491000E+03
  11 114 101 1.60491000E+03
  4 86 110 1.60491000E+03
  12 88 109 1.60491000E+03
  4 74 113 1.60491000E+03
  15 120 99 1.60490000E+03
  32 76 113 1.60490000E+03
  2 96 107 1.60490000E+03
  15 76 113 1.60490000E+03
  2 84 110 1.60490000E+03
  30 113 101 1.60489000E+03
  35 91 108 1.60489000E+03
  19 82 111 1.60489000E+03
  31 88 109 1.60489000E+03
  13 113 101 1.60489000E+03
  18 91 108 1.60488000E+03
  6 86 110 1.60488000E+03
  30 97 106 1.60488000E+03
  34 115 101 1.60488000E+03
  1 91 108 1.60488000E+03
  17 115 101 1.60487000E+03
  22 97 106 1.60487000E+03
  29 121 99 1.60487000E+03
  34 103 104 1.60487000E+03
  16 72 114 1.60487000E+03
  9 73 114 1.60486000E+03
  28 78 112 1.60486000E+03
  21 79 112 1.60486000E+03
  5 97 106 1.60486000E+03
  12 121 99 1.60486000E+03
  17 103 104 1.60485000E+03
  29 109 102 1.60485000E+03
  27 106 103 1.60485000E+03
  25 85 110 1.60485000E+03
  4 107 103 1.60485000E+03
  37 91 108 1.60484000E+03
  5 81 111 1.60484000E+03
  8 85 110 1.60484000E+03
  27 90 108 1.60484000E+03
  20 91 108 1.60484000E+03
  2 117 100 1.60483000E+03
  36 115 101 1.60483000E+03
  3 91 108 1.60483000E+03
  7 95 107 1.60483000E+03
  19 115 101 1.60483000E+03
  31 121 99 1.60482000E+03
  19 103 104 1.60482000E+03
  31 109 102 1.60482000E+03
  6 107 103 1.60482000E+03
  39 86 110 1.60482000E+03
  21 112 102 1.60481000E+03
  33 93 107 1.60481000E+03
  10 80 112 1.60481000E+03
  22 86 110 1.60481000E+03
  4 112 102 1.60481000E+03
  16 93 107 1.60480000E+03
  9 94 107 1.60480000E+03
  5 86 110 1.60480000E+03
  14 72 114 1.60480000E+03
  25 118 100 1.60480000E+03
  26 92 108 1.60479000E+03
  38 98 106 1.60479000E+03
  8 118 100 1.60479000E+03
  25 106 103 1.60479000E+03
  13 96 107 1.60479000E+03
  25 102 105 1.60478000E+03
  8 106 103 1.60478000E+03
  36 79 112 1.60478000E+03
  29 80 112 1.60478000E+03
  8 102 105 1.60478000E+03
  23 87 109 1.60477000E+03
  7 116 100 1.60477000E+03
  35 88 109 1.60477000E+03
  19 79 112 1.60477000E+03
  12 80 112 1.60477000E+03
  6 87 109 1.60476000E+03
  34 116 100 1.60476000E+03
  27 118 100 1.60476000E+03
  11 78 112 1.60476000E+03
  39 107 103 1.60476000E+03
  38 78 112 1.60475000E+03
  10 101 105 1.60475000E+03
  14 105 104 1.60475000E+03
  22 107 103 1.60475000E+03
  25 82 111 1.60475000E+03
  37 88 109 1.60474000E+03
  5 107 103 1.60474000E+03
  14 93 107 1.60474000E+03
  26 113 101 1.60474000E+03
  38 119 99 1.60474000E+03
  1 83 111 1.60473000E+03
  40 120 99 1.60473000E+03
  1 111 102 1.60473000E+03
  36 112 102 1.60473000E+03
  13 117 100 1.60473000E+03
  7 92 108 1.60472000E+03
  23 120 99 1.60472000E+03
  40 76 113 1.60472000E+03
  24 94 107 1.60472000E+03
  36 100 105 1.60472000E+03
  6 120 99 1.60471000E+03
  4 99 106 1.60471000E+03
  35 109 102 1.60471000E+03
  19 100 105 1.60471000E+03
  16 105 104 1.60471000E+03
  28 111 102 1.60470000E+03
  5 73 114 1.60470000E+03
  17 79 112 1.60470000E+03
  27 82 111 1.60470000E+03
  25 115 101 1.60470000E+03
  37 121 99 1.60469000E+03
  26 89 109 1.60469000E+03
  38 95 107 1.60469000E+03
  13 97 106 1.60469000E+03
  25 103 104 1.60469000E+03
  37 109 102 1.60468000E+03
  26 77 112 1.60468000E+03
  18 88 109 1.60468000E+03
  16 85 110 1.60468000E+03
  28 91 108 1.60468000E+03
  40 97 106 1.60467000E+03
  1 88 109 1.60467000E+03
  17 116 100 1.60467000E+03
  17 112 102 1.60467000E+03
  27 115 101 1.60467000E+03
  4 120 99 1.60466000E+03
  5 94 107 1.60466000E+03
  17 100 105 1.60466000E+03
  27 103 104 1.60466000E+03
  32 81 111 1.60466000E+03
  7 108 103 1.60465000E+03
  35 80 112 1.60465000E+03
  15 81 111 1.60465000E+03
  8 82 111 1.60465000E+03
  14 90 108 1.60465000E+03
  26 110 102 1.60464000E+03
  35 121 99 1.60464000E+03
  19 112 102 1.60464000E+03
  34 92 108 1.60464000E+03
  18 121 99 1.60464000E+03
  16 118 100 1.60463000E+03
  33 106 103 1.60463000E+03
  17 92 108 1.60463000E+03
  29 98 106 1.60463000E+03
  33 102 105 1.60463000E+03
  16 106 103 1.60462000E+03
  34 76 113 1.60462000E+03
  37 80 112 1.60462000E+03
  16 102 105 1.60462000E+03
  21 84 110 1.60462000E+03
  14 85 110 1.60461000E+03
  33 90 108 1.60461000E+03
  17 76 113 1.60461000E+03
  4 84 110 1.60461000E+03
  16 90 108 1.60461000E+03
  32 114 101 1.60460000E+03
  36 92 108 1.60460000E+03
  40 96 107 1.60460000E+03
  15 114 101 1.60460000E+03
  8 115 101 1.60460000E+03
  7 72 114 1.60459000E+03
  35 101 105 1.60459000E+03
  19 92 108 1.60459000E+03
  23 96 107 1.60459000E+03
  31 98 106 1.60459000E+03
  36 76 113 1.60458000E+03
  6 96 107 1.60458000E+03
  23 84 110 1.60458000E+03
  19 76 113 1.60458000E+03
  6 84 110 1.60458000E+03
  34 113 101 1.60457000E+03
  39 91 108 1.60457000E+03
  17 113 101 1.60457000E+03
  21 117 100 1.60457000E+03
  14 118 100 1.60457000E+03
  29 119 99 1.60456000E+03
  22 91 108 1.60456000E+03
  4 117 100 1.60456000E+03
  37 101 105 1.60456000E+03
  30 73 114 1.60456000E+03
  5 91 108 1.60455000E+03
  38 75 113 1.60455000E+03
  20 101 105 1.60455000E+03
  13 73 114 1.60455000E+03
  25 79 112 1.60455000E+03
  37 85 110 1.60454000E+03
  7 105 104 1.60454000E+03
  8 79 112 1.60454000E+03
  36 113 101 1.60454000E+03
  40 117 100 1.60454000E+03
  29 85 110 1.60453000E+03
  7 93 107 1.60453000E+03
  11 111 102 1.60453000E+03
  19 113 101 1.60453000E+03
  23 117 100 1.60453000E+03
  31 119 99 1.60452000E+03
  12 85 110 1.60452000E+03
  24 91 108 1.60452000E+03
  36 97 106 1.60452000E+03
  6 117 100 1.60452000E+03
  39 96 107 1.60451000E+03
  32 73 114 1.60451000E+03
  15 73 114 1.60451000E+03
  27 79 112 1.60451000E+03
  14 82 111 1.60451000E+03
  26 102 105 1.60450000E+03
  38 108 103 1.60450000E+03
  26 90 108 1.60450000E+03
  25 112 102 1.60450000E+03
  30 94 107 1.60450000E+03
  8 116 100 1.60449000E+03
  26 86 110 1.60449000E+03
  8 112 102 1.60449000E+03
  13 94 107 1.60449000E+03
  25 100 105 1.60449000E+03
  26 74 113 1.60448000E+03
  33 82 111 1.60448000E+03
  8 100 105 1.60448000E+03
  12 118 100 1.60448000E+03
  29 106 103 1.60448000E+03
  16 82 111 1.60447000E+03
  28 88 109 1.60447000E+03
  12 106 103 1.60447000E+03
  11 88 109 1.60447000E+03
  39 117 100 1.60447000E+03
  27 112 102 1.60446000E+03
  32 94 107 1.60446000E+03
  11 116 100 1.60446000E+03
  14 115 101 1.60446000E+03
  15 94 107 1.60446000E+03
  27 100 105 1.60445000E+03
  14 103 104 1.60445000E+03
  2 98 106 1.60445000E+03
  3 72 114 1.60445000E+03
  15 78 112 1.60445000E+03
  9 109 102 1.60444000E+03
  1 121 99 1.60444000E+03
  30 83 111 1.60444000E+03
  18 109 102 1.60444000E+03
  26 107 103 1.60444000E+03
  1 109 102 1.60443000E+03
  29 111 102 1.60443000E+03
  33 115 101 1.60443000E+03
  22 83 111 1.60443000E+03
  34 89 109 1.60443000E+03
  18 93 107 1.60442000E+03
  16 115 101 1.60442000E+03
  28 121 99 1.60442000E+03
  33 103 104 1.60442000E+03
  5 83 111 1.60442000E+03
  17 89 109 1.60441000E+03
  1 93 107 1.60441000E+03
  29 95 107 1.60441000E+03
  34 77 112 1.60441000E+03
  4 97 106 1.60441000E+03
  11 121 99 1.60440000E+03
  16 103 104 1.60440000E+03
  9 75 113 1.60440000E+03
  12 95 107 1.60440000E+03
  17 77 112 1.60440000E+03
  21 81 111 1.60439000E+03
  4 81 111 1.60439000E+03
  20 105 104 1.60439000E+03
  32 111 102 1.60439000E+03
  3 109 102 1.60439000E+03
  3 105 104 1.60438000E+03
  36 89 109 1.60438000E+03
  2 119 99 1.60438000E+03
  35 98 106 1.60438000E+03
  19 89 109 1.60438000E+03
  3 93 107 1.60437000E+03
  18 98 106 1.60437000E+03
  39 104 104 1.60437000E+03
  6 81 111 1.60437000E+03
  22 104 104 1.60437000E+03
  34 110 102 1.60436000E+03
  5 104 104 1.60436000E+03
  9 108 103 1.60436000E+03
  17 110 102 1.60436000E+03
  21 114 101 1.60436000E+03
  10 82 111 1.60435000E+03
  22 88 109 1.60435000E+03
  32 91 108 1.60435000E+03
  25 92 108 1.60435000E+03
  4 114 101 1.60435000E+03
  7 118 100 1.60434000E+03
  8 92 108 1.60434000E+03
  25 76 113 1.60434000E+03
  7 102 105 1.60434000E+03
  8 76 113 1.60434000E+03
  24 104 104 1.60433000E+03
  36 110 102 1.60433000E+03
  7 90 108 1.60433000E+03
  11 108 103 1.60433000E+03
  35 119 99 1.60433000E+03
  19 110 102 1.60432000E+03
  23 114 101 1.60432000E+03
  12 82 111 1.60432000E+03
  24 88 109 1.60432000E+03
  18 119 99 1.60432000E+03
  6 114 101 1.60431000E+03
  39 121 99 1.60431000E+03
  34 74 113 1.60431000E+03
  27 76 113 1.60431000E+03
  10 115 101 1.60431000E+03
  14 79 112 1.60430000E+03
  26 99 106 1.60430000E+03
  10 103 104 1.60430000E+03
  38 105 104 1.60430000E+03
  25 113 101 1.60430000E+03
  26 87 109 1.60430000E+03
  40 94 107 1.60429000E+03
  8 113 101 1.60429000E+03
  24 80 112 1.60429000E+03
  1 85 110 1.60429000E+03
  36 86 110 1.60429000E+03
  13 91 108 1.60428000E+03
  25 97 106 1.60428000E+03
  23 94 107 1.60428000E+03
  28 72 114 1.60428000E+03
  21 73 114 1.60428000E+03
  36 74 113 1.60427000E+03
  40 78 112 1.60427000E+03
  33 79 112 1.60427000E+03
  12 115 101 1.60427000E+03
  24 121 99 1.60427000E+03
  11 72 114 1.60426000E+03
  4 73 114 1.60426000E+03
  23 78 112 1.60426000E+03
  12 103 104 1.60426000E+03
  24 109 102 1.60426000E+03
  6 78 112 1.60425000E+03
  14 116 100 1.60425000E+03
  14 112 102 1.60425000E+03
  3 85 110 1.60425000E+03
  15 91 108 1.60425000E+03
  14 100 105 1.60424000E+03
  18 118 100 1.60424000E+03
  26 120 99 1.60424000E+03
  1 118 100 1.60424000E+03
  24 101 105 1.60424000E+03
  1 106 103 1.60423000E+03
  36 107 103 1.60423000E+03
  40 111 102 1.60423000E+03
  33 112 102 1.60423000E+03
  22 80 112 1.60423000E+03
  34 86 110 1.60422000E+03
  23 111 102 1.60422000E+03
  28 93 107 1.60422000E+03
  21 94 107 1.60422000E+03
  16 112 102 1.60422000E+03
  5 80 112 1.60421000E+03
  17 86 110 1.60421000E+03
  11 93 107 1.60421000E+03
  4 94 107 1.60421000E+03
  27 77 112 1.60421000E+03
  3 118 100 1.60420000E+03
  2 75 113 1.60420000E+03
  30 104 104 1.60420000E+03
  3 106 103 1.60420000E+03
  31 79 112 1.60420000E+03
  3 102 105 1.60419000E+03
  30 88 109 1.60419000E+03
  13 88 109 1.60419000E+03
  29 116 100 1.60419000E+03
  12 116 100 1.60419000E+03
  33 76 113 1.60418000E+03
  10 95 107 1.60418000E+03
  22 101 105 1.60418000E+03
  34 107 103 1.60418000E+03
  37 82 111 1.60418000E+03
  5 101 105 1.60417000E+03
  17 107 103 1.60417000E+03
  15 104 104 1.60417000E+03
  27 110 102 1.60417000E+03
  20 82 111 1.60417000E+03
  32 88 109 1.60416000E+03
  2 108 103 1.60416000E+03
  3 82 111 1.60416000E+03
  15 88 109 1.60416000E+03
  31 112 102 1.60416000E+03
  36 94 107 1.60415000E+03
  2 92 108 1.60415000E+03
  30 121 99 1.60415000E+03
  19 94 107 1.60415000E+03
  31 100 105 1.60415000E+03
  34 99 106 1.60414000E+03
  30 109 102 1.60414000E+03
  33 113 101 1.60414000E+03
  1 103 104 1.60414000E+03
  34 87 109 1.60414000E+03
  34 83 111 1.60413000E+03
  9 85 110 1.60413000E+03
  21 91 108 1.60413000E+03
  33 97 106 1.60413000E+03
  37 115 101 1.60413000E+03
  10 116 100 1.60412000E+03
  38 89 109 1.60412000E+03
  10 112 102 1.60412000E+03
  20 115 101 1.60412000E+03
  32 121 99 1.60412000E+03
  37 103 104 1.60411000E+03
  38 77 112 1.60411000E+03
  3 115 101 1.60411000E+03
  8 97 106 1.60411000E+03
  36 99 106 1.60411000E+03
  15 121 99 1.60410000E+03
  20 103 104 1.60410000E+03
  32 109 102 1.60410000E+03
  3 103 104 1.60410000E+03
  40 91 108 1.60410000E+03
  15 109 102 1.60409000E+03
  36 83 111 1.60409000E+03
  23 91 108 1.60409000E+03
  19 83 111 1.60409000E+03
  6 91 108 1.60409000E+03
  34 120 99 1.60408000E+03
  39 98 106 1.60408000E+03
  9 118 100 1.60408000E+03
  10 92 108 1.60408000E+03
  22 98 106 1.60408000E+03
  9 106 103 1.60407000E+03
  30 80 112 1.60407000E+03
  38 110 102 1.60407000E+03
  13 80 112 1.60407000E+03
  25 86 110 1.60407000E+03
  9 90 108 1.60406000E+03
  25 74 113 1.60406000E+03
  36 120 99 1.60406000E+03
  29 92 108 1.60406000E+03
  1 115 101 1.60406000E+03
  13 121 99 1.60405000E+03
  11 118 100 1.60405000E+03
  28 106 103 1.60405000E+03
  12 92 108 1.60405000E+03
  24 98 106 1.60405000E+03
  28 102 105 1.60404000E+03
  36 104 104 1.60404000E+03
  11 106 103 1.60404000E+03
  29 76 113 1.60404000E+03
  32 80 112 1.60404000E+03
  11 102 105 1.60403000E+03
  16 84 110 1.60403000E+03
  28 90 108 1.60403000E+03
  12 76 113 1.60403000E+03
  15 80 112 1.60403000E+03
  27 86 110 1.60402000E+03
  11 90 108 1.60402000E+03
  39 119 99 1.60402000E+03
  27 114 101 1.60402000E+03
  10 113 101 1.60402000E+03
  22 119 99 1.60401000E+03
  31 92 108 1.60401000E+03
  14 77 112 1.60401000E+03
  2 72 114 1.60401000E+03
  26 97 106 1.60401000E+03
  30 101 105 1.60400000E+03
  35 79 112 1.60400000E+03
  31 76 113 1.60400000E+03
  1 95 107 1.60400000E+03
  13 101 105 1.60400000E+03
  25 107 103 1.60399000E+03
  18 79 112 1.60399000E+03
  26 81 111 1.60399000E+03
  33 89 109 1.60399000E+03
  1 79 112 1.60399000E+03
  29 113 101 1.60398000E+03
  16 89 109 1.60398000E+03
  12 113 101 1.60398000E+03
  16 117 100 1.60398000E+03
  33 73 114 1.60398000E+03
  24 119 99 1.60397000E+03
  17 91 108 1.60397000E+03
  32 101 105 1.60397000E+03
  7 99 106 1.60397000E+03
  15 101 105 1.60397000E+03
  8 73 114 1.60396000E+03
  20 79 112 1.60396000E+03
  32 85 110 1.60396000E+03
  2 105 104 1.60396000E+03
  7 87 109 1.60396000E+03
  3 79 112 1.60395000E+03
  7 83 111 1.60395000E+03
  31 113 101 1.60395000E+03
  35 112 102 1.60395000E+03
  2 93 107 1.60395000E+03
  18 116 100 1.60394000E+03
  6 111 102 1.60394000E+03
  18 112 102 1.60394000E+03
  35 100 105 1.60394000E+03
  19 91 108 1.60394000E+03
  31 97 106 1.60393000E+03
  1 116 100 1.60393000E+03
  1 112 102 1.60393000E+03
  34 96 107 1.60393000E+03
  39 78 112 1.60393000E+03
  18 100 105 1.60392000E+03
  40 109 102 1.60392000E+03
  17 96 107 1.60392000E+03
  29 77 112 1.60392000E+03
  22 78 112 1.60392000E+03
  1 100 105 1.60391000E+03
  4 104 104 1.60391000E+03
  5 78 112 1.60391000E+03
  9 82 111 1.60391000E+03
  21 88 109 1.60391000E+03
  38 90 108 1.60390000E+03
  37 112 102 1.60390000E+03
  26 80 112 1.60390000E+03
  4 88 109 1.60390000E+03
  38 86 110 1.60390000E+03
  20 112 102 1.60389000E+03
  3 116 100 1.60389000E+03
  7 120 99 1.60389000E+03
  31 89 109 1.60389000E+03
  3 112 102 1.60389000E+03
  8 94 107 1.60388000E+03
  20 100 105 1.60388000E+03
  31 77 112 1.60388000E+03
  28 82 111 1.60388000E+03
  3 100 105 1.60388000E+03
  7 104 104 1.60387000E+03
  40 88 109 1.60387000E+03
  11 82 111 1.60387000E+03
  23 88 109 1.60387000E+03
  39 111 102 1.60387000E+03
  6 88 109 1.60386000E+03
  22 111 102 1.60386000E+03
  34 117 100 1.60386000E+03
  39 95 107 1.60386000E+03
  37 92 108 1.60386000E+03
  5 111 102 1.60385000E+03
  9 115 101 1.60385000E+03
  14 97 106 1.60385000E+03
  17 117 100 1.60385000E+03
  21 121 99 1.60385000E+03
  10 89 109 1.60384000E+03
  22 95 107 1.60384000E+03
  4 121 99 1.60384000E+03
  9 103 104 1.60384000E+03
  21 109 102 1.60384000E+03
  10 77 112 1.60383000E+03
  26 101 105 1.60383000E+03
  4 109 102 1.60383000E+03
  38 107 103 1.60383000E+03
  25 83 111 1.60383000E+03
  19 104 104 1.60382000E+03
  8 83 111 1.60382000E+03
  31 110 102 1.60382000E+03
  28 115 101 1.60382000E+03
  40 121 99 1.60382000E+03
  17 83 111 1.60381000E+03
  29 89 109 1.60381000E+03
  11 115 101 1.60381000E+03
  23 121 99 1.60381000E+03
  28 103 104 1.60381000E+03
  12 89 109 1.60380000E+03
  24 95 107 1.60380000E+03
  6 121 99 1.60380000E+03
  11 103 104 1.60380000E+03
  12 77 112 1.60380000E+03
  38 99 106 1.60379000E+03
  14 86 110 1.60379000E+03
  37 113 101 1.60379000E+03
  38 87 109 1.60379000E+03
  35 92 108 1.60379000E+03
  10 110 102 1.60378000E+03
  14 114 101 1.60378000E+03
  18 92 108 1.60378000E+03
  37 97 106 1.60378000E+03
  30 98 106 1.60378000E+03
  40 101 105 1.60377000E+03
  1 92 108 1.60377000E+03
  20 97 106 1.60377000E+03
  13 98 106 1.60377000E+03
  18 76 113 1.60377000E+03
  16 73 114 1.60376000E+03
  28 79 112 1.60376000E+03
  40 85 110 1.60376000E+03
  17 104 104 1.60376000E+03
  29 110 102 1.60376000E+03
  12 110 102 1.60375000E+03
  27 91 108 1.60375000E+03
  20 92 108 1.60375000E+03
  2 118 100 1.60375000E+03
  3 92 108 1.60375000E+03
  7 96 107 1.60374000E+03
  38 120 99 1.60374000E+03
  2 102 105 1.60374000E+03
  3 76 113 1.60374000E+03
  2 90 108 1.60374000E+03
  18 113 101 1.60373000E+03
  30 119 99 1.60373000E+03
  28 112 102 1.60373000E+03
  1 113 101 1.60373000E+03
  33 94 107 1.60373000E+03
  40 118 100 1.60372000E+03
  13 119 99 1.60372000E+03
  29 86 110 1.60372000E+03
  16 94 107 1.60372000E+03
  28 100 105 1.60372000E+03
  40 106 103 1.60371000E+03
  29 74 113 1.60371000E+03
  5 115 101 1.60371000E+03
  12 74 113 1.60371000E+03
  9 79 112 1.60371000E+03
  20 113 101 1.60370000E+03
  36 80 112 1.60370000E+03
  3 113 101 1.60370000E+03
  35 89 109 1.60370000E+03
  19 80 112 1.60370000E+03
  31 86 110 1.60369000E+03
  35 77 112 1.60369000E+03
  23 72 114 1.60369000E+03
  31 74 113 1.60369000E+03
  18 77 112 1.60369000E+03
  6 72 114 1.60368000E+03
  34 101 105 1.60368000E+03
  39 108 103 1.60368000E+03
  17 101 105 1.60368000E+03
  10 102 105 1.60368000E+03
  29 107 103 1.60367000E+03
  9 116 100 1.60367000E+03
  37 89 109 1.60367000E+03
  10 90 108 1.60367000E+03
  9 112 102 1.60367000E+03
  10 86 110 1.60366000E+03
  20 89 109 1.60366000E+03
  32 95 107 1.60366000E+03
  37 77 112 1.60366000E+03
  9 100 105 1.60366000E+03
  10 74 113 1.60365000E+03
  20 77 112 1.60365000E+03
  36 101 105 1.60365000E+03
  7 81 111 1.60365000E+03
  35 110 102 1.60365000E+03
  19 101 105 1.60364000E+03
  31 107 103 1.60364000E+03
  18 110 102 1.60364000E+03
  30 116 100 1.60364000E+03
  11 112 102 1.60364000E+03
  23 93 107 1.60363000E+03
  12 86 110 1.60363000E+03
  6 93 107 1.60363000E+03
  39 72 114 1.60363000E+03
  38 96 107 1.60363000E+03
  9 76 113 1.60363000E+03
  25 104 104 1.60362000E+03
  37 110 102 1.60362000E+03
  26 78 112 1.60362000E+03
  38 84 110 1.60362000E+03
  8 104 104 1.60362000E+03
  20 110 102 1.60361000E+03
  32 116 100 1.60361000E+03
  25 88 109 1.60361000E+03
  18 89 109 1.60361000E+03
  7 114 101 1.60361000E+03
  40 98 106 1.60360000E+03
  8 88 109 1.60360000E+03
  1 89 109 1.60360000E+03
  24 116 100 1.60360000E+03
  11 92 108 1.60360000E+03
  23 98 106 1.60359000E+03
  24 72 114 1.60359000E+03
  28 76 113 1.60359000E+03
  11 76 113 1.60359000E+03
  39 105 104 1.60359000E+03
  12 107 103 1.60358000E+03
  15 82 111 1.60358000E+03
  39 93 107 1.60358000E+03
  27 88 109 1.60358000E+03
  14 91 108 1.60358000E+03
  22 93 107 1.60357000E+03
  26 111 102 1.60357000E+03
  38 117 100 1.60357000E+03
  30 75 113 1.60357000E+03
  2 74 113 1.60357000E+03
  25 121 99 1.60356000E+03
  29 99 106 1.60356000E+03
  8 121 99 1.60356000E+03
  25 109 102 1.60356000E+03
  28 113 101 1.60356000E+03
  40 119 99 1.60355000E+03
  12 99 106 1.60355000E+03
  21 85 110 1.60355000E+03
  24 105 104 1.60355000E+03
  29 87 109 1.60355000E+03
  33 91 108 1.60354000E+03
  11 113 101 1.60354000E+03
  29 83 111 1.60354000E+03
  23 119 99 1.60354000E+03
  4 85 110 1.60354000E+03
  12 87 109 1.60353000E+03
  16 91 108 1.60353000E+03
  24 93 107 1.60353000E+03
  28 97 106 1.60353000E+03
  32 115 101 1.60353000E+03
  11 97 106 1.60352000E+03
  15 115 101 1.60352000E+03
  27 121 99 1.60352000E+03
  7 73 114 1.60352000E+03
  3 97 106 1.60352000E+03
  31 99 106 1.60351000E+03
  15 103 104 1.60351000E+03
  27 109 102 1.60351000E+03
  2 79 112 1.60351000E+03
  30 108 103 1.60351000E+03
  35 86 110 1.60350000E+03
  31 83 111 1.60350000E+03
  18 90 108 1.60350000E+03
  18 86 110 1.60350000E+03
  35 74 113 1.60350000E+03
  21 118 100 1.60349000E+03
  18 74 113 1.60349000E+03
  29 120 99 1.60349000E+03
  22 92 108 1.60349000E+03
  34 98 106 1.60349000E+03
  4 118 100 1.60348000E+03
  1 74 113 1.60348000E+03
  12 120 99 1.60348000E+03
  21 106 103 1.60348000E+03
  5 92 108 1.60348000E+03
  17 98 106 1.60347000E+03
  4 106 103 1.60347000E+03
  25 80 112 1.60347000E+03
  37 86 110 1.60347000E+03
  8 80 112 1.60347000E+03
  20 86 110 1.60346000E+03
  4 90 108 1.60346000E+03
  37 74 113 1.60346000E+03
  2 112 102 1.60346000E+03
  7 94 107 1.60346000E+03
  3 86 110 1.60345000E+03
  20 74 113 1.60345000E+03
  31 120 99 1.60345000E+03
  24 92 108 1.60345000E+03
  2 100 105 1.60345000E+03
  36 98 106 1.60344000E+03
  6 118 100 1.60344000E+03
  3 74 113 1.60344000E+03
  7 78 112 1.60344000E+03
  35 107 103 1.60344000E+03
  19 98 106 1.60343000E+03
  31 104 104 1.60343000E+03
  6 106 103 1.60343000E+03
  18 107 103 1.60343000E+03
  27 80 112 1.60343000E+03
  6 102 105 1.60342000E+03
  1 107 103 1.60342000E+03
  6 90 108 1.60342000E+03
  22 113 101 1.60342000E+03
  34 119 99 1.60342000E+03
  9 89 109 1.60341000E+03
  21 95 107 1.60341000E+03
  5 113 101 1.60341000E+03
  38 97 106 1.60341000E+03
  17 119 99 1.60341000E+03
  9 77 112 1.60340000E+03
  25 101 105 1.60340000E+03
  37 107 103 1.60340000E+03
  26 75 113 1.60340000E+03
  38 81 111 1.60340000E+03
  8 101 105 1.60339000E+03
  20 107 103 1.60339000E+03
  13 79 112 1.60339000E+03
  3 107 103 1.60339000E+03
  28 89 109 1.60339000E+03
  7 111 102 1.60338000E+03
  24 113 101 1.60338000E+03
  36 119 99 1.60338000E+03
  11 89 109 1.60338000E+03
  39 118 100 1.60338000E+03
  28 73 114 1.60337000E+03
  19 119 99 1.60337000E+03
  27 101 105 1.60337000E+03
  39 102 105 1.60337000E+03
  14 104 104 1.60337000E+03
  2 99 106 1.60336000E+03
  33 109 102 1.60336000E+03
  10 96 107 1.60336000E+03
  9 110 102 1.60336000E+03
  10 84 110 1.60336000E+03
  14 88 109 1.60335000E+03
  26 108 103 1.60335000E+03
  38 114 101 1.60335000E+03
  36 111 102 1.60335000E+03
  13 116 100 1.60335000E+03
  13 112 102 1.60334000E+03
  40 103 104 1.60334000E+03
  1 94 107 1.60334000E+03
  36 95 107 1.60334000E+03
  34 78 112 1.60334000E+03
  29 96 107 1.60333000E+03
  13 100 105 1.60333000E+03
  23 103 104 1.60333000E+03
  12 96 107 1.60333000E+03
  24 77 112 1.60333000E+03
  17 78 112 1.60332000E+03
  6 103 104 1.60332000E+03
  4 82 111 1.60332000E+03
  16 88 109 1.60332000E+03
  15 112 102 1.60332000E+03
  35 99 106 1.60331000E+03
  10 117 100 1.60331000E+03
  14 121 99 1.60331000E+03
  25 98 106 1.60331000E+03
  18 99 106 1.60331000E+03
  37 104 104 1.60330000E+03
  14 109 102 1.60330000E+03
  26 72 114 1.60330000E+03
  35 83 111 1.60330000E+03
  33 80 112 1.60330000E+03
  1 99 106 1.60329000E+03
  6 82 111 1.60329000E+03
  18 83 111 1.60329000E+03
  34 111 102 1.60329000E+03
  17 111 102 1.60329000E+03
  36 116 100 1.60328000E+03
  29 117 100 1.60328000E+03
  28 74 113 1.60328000E+03
  32 92 108 1.60328000E+03
  4 115 101 1.60328000E+03
  12 117 100 1.60327000E+03
  16 121 99 1.60327000E+03
  5 89 109 1.60327000E+03
  17 95 107 1.60327000E+03
  15 92 108 1.60327000E+03
  27 98 106 1.60326000E+03
  4 103 104 1.60326000E+03
  16 109 102 1.60326000E+03
  5 77 112 1.60326000E+03
  37 83 111 1.60326000E+03
  20 83 111 1.60325000E+03
  7 91 108 1.60325000E+03
  35 120 99 1.60325000E+03
  3 83 111 1.60325000E+03
  25 119 99 1.60325000E+03
  18 120 99 1.60324000E+03
  6 115 101 1.60324000E+03
  26 93 107 1.60324000E+03
  19 95 107 1.60324000E+03
  33 101 105 1.60324000E+03
  1 120 99 1.60323000E+03
  34 75 113 1.60323000E+03
  14 80 112 1.60323000E+03
  33 85 110 1.60323000E+03
  4 79 112 1.60323000E+03
  9 86 110 1.60322000E+03
  32 113 101 1.60322000E+03
  5 110 102 1.60322000E+03
  15 113 101 1.60322000E+03
  27 119 99 1.60322000E+03
  13 92 108 1.60321000E+03
  32 97 106 1.60321000E+03
  36 75 113 1.60321000E+03
  40 79 112 1.60321000E+03
  15 97 106 1.60321000E+03
  8 98 106 1.60320000E+03
  11 73 114 1.60320000E+03
  35 84 110 1.60320000E+03
  19 75 113 1.60320000E+03
  23 79 112 1.60320000E+03
  31 81 111 1.60319000E+03
  6 79 112 1.60319000E+03
  22 102 105 1.60319000E+03
  34 108 103 1.60319000E+03
  39 90 108 1.60319000E+03
  22 90 108 1.60318000E+03
  33 118 100 1.60318000E+03
  39 74 113 1.60318000E+03
  5 90 108 1.60318000E+03
  37 96 107 1.60318000E+03
  21 100 105 1.60317000E+03
  14 101 105 1.60317000E+03
  22 74 113 1.60317000E+03
  26 121 99 1.60317000E+03
  25 78 112 1.60317000E+03
  4 100 105 1.60316000E+03
  37 84 110 1.60316000E+03
  5 74 113 1.60316000E+03
  26 105 104 1.60316000E+03
  36 108 103 1.60316000E+03
  40 112 102 1.60315000E+03
  7 88 109 1.60315000E+03
  19 108 103 1.60315000E+03
  23 112 102 1.60315000E+03
  28 94 107 1.60315000E+03
  31 114 101 1.60314000E+03
  40 100 105 1.60314000E+03
  8 119 99 1.60314000E+03
  24 86 110 1.60314000E+03
  6 112 102 1.60314000E+03
  11 94 107 1.60313000E+03
  23 100 105 1.60313000E+03
  24 74 113 1.60313000E+03
  6 100 105 1.60313000E+03
  31 80 112 1.60313000E+03
  25 111 102 1.60312000E+03
  37 117 100 1.60312000E+03
  26 85 110 1.60312000E+03
  30 89 109 1.60312000E+03
  38 91 108 1.60312000E+03
  13 89 109 1.60311000E+03
  25 95 107 1.60311000E+03
  30 77 112 1.60311000E+03
  29 73 114 1.60311000E+03
  8 95 107 1.60311000E+03
  13 77 112 1.60310000E+03
  29 101 105 1.60310000E+03
  7 109 102 1.60310000E+03
  28 83 111 1.60310000E+03
  12 101 105 1.60310000E+03
  5 102 105 1.60309000E+03
  24 107 103 1.60309000E+03
  32 89 109 1.60309000E+03
  15 89 109 1.60309000E+03
  27 95 107 1.60309000E+03
  32 77 112 1.60308000E+03
  14 98 106 1.60308000E+03
  7 75 113 1.60308000E+03
  15 77 112 1.60308000E+03