# File generated by Flopy version 3.9.2 on 02/23/2025 at 22:11:10.
BEGIN options
END options

BEGIN dimensions
  MAXBOUND  2
END dimensions

BEGIN period  1
  1 113 98 -4.50861768E+02
  1 115 95 -3.84671576E+02
END period  1

