# File generated by Flopy version 3.9.2 on 03/19/2025 at 13:28:14.
BEGIN options
  BUDGET  FILEOUT  gwf_model.cbb
  HEAD  FILEOUT  gwf_model.hds
END options

BEGIN period  1
  SAVE  HEAD  ALL
  SAVE  BUDGET  ALL
  PRINT  HEAD  LAST
END period  1

