# File generated by Flopy version 3.9.2 on 03/19/2025 at 13:28:07.
BEGIN options
END options

BEGIN timing
  TDIS6  gwf_model.tdis
END timing

BEGIN models
  gwf6  gwf_model.nam  gwf_model
END models

BEGIN exchanges
END exchanges

BEGIN solutiongroup  1
  ims6  gwf_model.ims  gwf_model
END solutiongroup  1

